<?xml version="1.0" encoding="UTF-8"?>

<!-- generated on 2022-06-01 11:16:42 by Eclipse SUMO netedit Version 1.13.0
<configuration xmlns:xsi="http://www.w3.org/2001/XMLSchema-instance" xsi:noNamespaceSchemaLocation="http://sumo.dlr.de/xsd/netconvertConfiguration.xsd">

    <output>
        <output-file value="/home/mickael/Desktop/road.net.xml"/>
    </output>

    <processing>
        <offset.disable-normalization value="true"/>
    </processing>

    <junctions>
        <no-turnarounds value="true"/>
    </junctions>

    <report>
        <aggregate-warnings value="5"/>
    </report>

</configuration>
-->

<net version="1.9" junctionCornerDetail="5" limitTurnSpeed="5.50" xmlns:xsi="http://www.w3.org/2001/XMLSchema-instance" xsi:noNamespaceSchemaLocation="http://sumo.dlr.de/xsd/net_file.xsd">

    <location netOffset="0.00,0.00" convBoundary="0.00,0.00,200.00,200.00" origBoundary="10000000000.00,10000000000.00,-10000000000.00,-10000000000.00" projParameter="!"/>

    <edge id=":J0_0" function="internal">
        <lane id=":J0_0_0" index="0" speed="3.90" length="2.58" shape="1.60,196.80 1.70,197.50 2.00,198.00 2.50,198.30 3.20,198.40"/>
    </edge>
    <edge id=":J1_0" function="internal">
        <lane id=":J1_0_0" index="0" speed="3.90" length="2.58" shape="196.80,198.40 197.50,198.30 198.00,198.00 198.30,197.50 198.40,196.80"/>
    </edge>
    <edge id=":J2_0" function="internal">
        <lane id=":J2_0_0" index="0" speed="3.90" length="2.58" shape="198.40,3.20 198.30,2.50 198.00,2.00 197.50,1.70 196.80,1.60"/>
    </edge>
    <edge id=":J3_0" function="internal">
        <lane id=":J3_0_0" index="0" speed="3.90" length="2.58" shape="3.20,1.60 2.50,1.70 2.00,2.00 1.70,2.50 1.60,3.20"/>
    </edge>

    <edge id="E0" from="J0" to="J1" priority="-1">
        <lane id="E0_0" index="0" speed="13.89" length="193.60" shape="3.20,198.40 196.80,198.40"/>
    </edge>
    <edge id="E1" from="J1" to="J2" priority="-1">
        <lane id="E1_0" index="0" speed="13.89" length="193.60" shape="198.40,196.80 198.40,3.20"/>
    </edge>
    <edge id="E2" from="J2" to="J3" priority="-1">
        <lane id="E2_0" index="0" speed="13.89" length="193.60" shape="196.80,1.60 3.20,1.60"/>
    </edge>
    <edge id="E3" from="J3" to="J0" priority="-1">
        <lane id="E3_0" index="0" speed="13.89" length="193.60" shape="1.60,3.20 1.60,196.80"/>
    </edge>

    <junction id="J0" type="priority" x="0.00" y="200.00" incLanes="E3_0" intLanes=":J0_0_0" shape="3.20,200.00 3.20,196.80 0.00,196.80 0.36,198.58 0.80,199.20 1.42,199.64 2.22,199.91">
        <request index="0" response="0" foes="0" cont="0"/>
    </junction>
    <junction id="J1" type="priority" x="200.00" y="200.00" incLanes="E0_0" intLanes=":J1_0_0" shape="200.00,196.80 196.80,196.80 196.80,200.00 198.58,199.64 199.20,199.20 199.64,198.58 199.91,197.78">
        <request index="0" response="0" foes="0" cont="0"/>
    </junction>
    <junction id="J2" type="priority" x="200.00" y="0.00" incLanes="E1_0" intLanes=":J2_0_0" shape="196.80,3.20 200.00,3.20 199.64,1.42 199.20,0.80 198.58,0.36 197.78,0.09 196.80,0.00">
        <request index="0" response="0" foes="0" cont="0"/>
    </junction>
    <junction id="J3" type="priority" x="0.00" y="0.00" incLanes="E2_0" intLanes=":J3_0_0" shape="0.00,3.20 3.20,3.20 3.20,0.00 1.42,0.36 0.80,0.80 0.36,1.42 0.09,2.22">
        <request index="0" response="0" foes="0" cont="0"/>
    </junction>

    <connection from="E0" to="E1" fromLane="0" toLane="0" via=":J1_0_0" dir="r" state="M"/>
    <connection from="E1" to="E2" fromLane="0" toLane="0" via=":J2_0_0" dir="r" state="M"/>
    <connection from="E2" to="E3" fromLane="0" toLane="0" via=":J3_0_0" dir="r" state="M"/>
    <connection from="E3" to="E0" fromLane="0" toLane="0" via=":J0_0_0" dir="r" state="M"/>

    <connection from=":J0_0" to="E0" fromLane="0" toLane="0" dir="r" state="M"/>
    <connection from=":J1_0" to="E1" fromLane="0" toLane="0" dir="r" state="M"/>
    <connection from=":J2_0" to="E2" fromLane="0" toLane="0" dir="r" state="M"/>
    <connection from=":J3_0" to="E3" fromLane="0" toLane="0" dir="r" state="M"/>

</net>
