<?xml version="1.0" encoding="UTF-8"?>

<!-- generated on 2022-06-01 11:17:45 by Eclipse SUMO netedit Version 1.13.0
-->

<routes xmlns:xsi="http://www.w3.org/2001/XMLSchema-instance" xsi:noNamespaceSchemaLocation="http://sumo.dlr.de/xsd/routes_file.xsd">
    <!-- Routes -->
    <route id="r_0" edges="E3 E0 E1 E2"/>
    <!-- Vehicles, persons and containers (sorted by depart) -->
    <vType id="type1" length="5" maxSpeed="3" carFollowModel="Krauss" accel="2.6" decel="4.5" sigma="0.5"/>
    <vehicle id="0" type="type1" depart="0.00" route="r_0"/>
    <vehicle id="1" type="type1" depart="100.00" route="r_0"/>
    <vehicle id="2" type="type1" depart="200.00" route="r_0"/>
    <vehicle id="3" type="type1" depart="300.00" route="r_0"/>
</routes>
