<?xml version="1.0" encoding="UTF-8"?>

<!-- generated on 2022-06-16 16:48:14 by Eclipse SUMO netedit Version 1.13.0
<configuration xmlns:xsi="http://www.w3.org/2001/XMLSchema-instance" xsi:noNamespaceSchemaLocation="http://sumo.dlr.de/xsd/netconvertConfiguration.xsd">

    <output>
        <output-file value="/home/mickael/Desktop/suño%20test/v2/road.net.xml"/>
    </output>

    <processing>
        <offset.disable-normalization value="true"/>
    </processing>

    <junctions>
        <no-turnarounds value="true"/>
    </junctions>

    <report>
        <aggregate-warnings value="5"/>
    </report>

</configuration>
-->

<net version="1.9" junctionCornerDetail="5" limitTurnSpeed="5.50" xmlns:xsi="http://www.w3.org/2001/XMLSchema-instance" xsi:noNamespaceSchemaLocation="http://sumo.dlr.de/xsd/net_file.xsd">

    <location netOffset="0.00,0.00" convBoundary="0.00,0.00,1200.00,1200.00" origBoundary="10000000000.00,10000000000.00,-10000000000.00,-10000000000.00" projParameter="!"/>

    <edge id=":J0_0" function="internal">
        <lane id=":J0_0_0" index="0" speed="3.90" length="2.58" shape="4.80,1193.60 4.90,1194.30 5.20,1194.80 5.70,1195.10 6.40,1195.20"/>
        <lane id=":J0_0_1" index="1" speed="6.08" length="7.74" shape="1.60,1193.60 1.90,1195.70 2.80,1197.20 4.30,1198.10 6.40,1198.40"/>
    </edge>
    <edge id=":J1_0" function="internal">
        <lane id=":J1_0_0" index="0" speed="3.90" length="2.58" shape="1193.60,1195.20 1194.30,1195.10 1194.80,1194.80 1195.10,1194.30 1195.20,1193.60"/>
        <lane id=":J1_0_1" index="1" speed="6.08" length="7.74" shape="1193.60,1198.40 1195.70,1198.10 1197.20,1197.20 1198.10,1195.70 1198.40,1193.60"/>
    </edge>
    <edge id=":J2_0" function="internal">
        <lane id=":J2_0_0" index="0" speed="3.90" length="2.58" shape="1195.20,6.40 1195.10,5.70 1194.80,5.20 1194.30,4.90 1193.60,4.80"/>
        <lane id=":J2_0_1" index="1" speed="6.08" length="7.74" shape="1198.40,6.40 1198.10,4.30 1197.20,2.80 1195.70,1.90 1193.60,1.60"/>
    </edge>
    <edge id=":J3_0" function="internal">
        <lane id=":J3_0_0" index="0" speed="3.90" length="2.58" shape="6.40,4.80 5.70,4.90 5.20,5.20 4.90,5.70 4.80,6.40"/>
        <lane id=":J3_0_1" index="1" speed="6.08" length="7.74" shape="6.40,1.60 4.30,1.90 2.80,2.80 1.90,4.30 1.60,6.40"/>
    </edge>

    <edge id="E0" from="J0" to="J1" priority="-1">
        <lane id="E0_0" index="0" speed="13.89" length="1187.20" shape="6.40,1195.20 1193.60,1195.20"/>
        <lane id="E0_1" index="1" speed="13.89" length="1187.20" shape="6.40,1198.40 1193.60,1198.40"/>
    </edge>
    <edge id="E1" from="J1" to="J2" priority="-1">
        <lane id="E1_0" index="0" speed="13.89" length="1187.20" shape="1195.20,1193.60 1195.20,6.40"/>
        <lane id="E1_1" index="1" speed="13.89" length="1187.20" shape="1198.40,1193.60 1198.40,6.40"/>
    </edge>
    <edge id="E2" from="J2" to="J3" priority="-1">
        <lane id="E2_0" index="0" speed="13.89" length="1187.20" shape="1193.60,4.80 6.40,4.80"/>
        <lane id="E2_1" index="1" speed="13.89" length="1187.20" shape="1193.60,1.60 6.40,1.60"/>
    </edge>
    <edge id="E3" from="J3" to="J0" priority="-1">
        <lane id="E3_0" index="0" speed="13.89" length="1187.20" shape="4.80,6.40 4.80,1193.60"/>
        <lane id="E3_1" index="1" speed="13.89" length="1187.20" shape="1.60,6.40 1.60,1193.60"/>
    </edge>

    <junction id="J0" type="priority" x="0.00" y="1200.00" incLanes="E3_0 E3_1" intLanes=":J0_0_0 :J0_0_1" shape="6.40,1200.00 6.40,1193.60 0.00,1193.60 0.71,1197.16 1.60,1198.40 2.84,1199.29 4.44,1199.82">
        <request index="0" response="00" foes="00" cont="0"/>
        <request index="1" response="00" foes="00" cont="0"/>
    </junction>
    <junction id="J1" type="priority" x="1200.00" y="1200.00" incLanes="E0_0 E0_1" intLanes=":J1_0_0 :J1_0_1" shape="1200.00,1193.60 1193.60,1193.60 1193.60,1200.00 1197.16,1199.29 1198.40,1198.40 1199.29,1197.16 1199.82,1195.56">
        <request index="0" response="00" foes="00" cont="0"/>
        <request index="1" response="00" foes="00" cont="0"/>
    </junction>
    <junction id="J2" type="priority" x="1200.00" y="0.00" incLanes="E1_0 E1_1" intLanes=":J2_0_0 :J2_0_1" shape="1193.60,6.40 1200.00,6.40 1199.29,2.84 1198.40,1.60 1197.16,0.71 1195.56,0.18 1193.60,0.00">
        <request index="0" response="00" foes="00" cont="0"/>
        <request index="1" response="00" foes="00" cont="0"/>
    </junction>
    <junction id="J3" type="priority" x="0.00" y="0.00" incLanes="E2_0 E2_1" intLanes=":J3_0_0 :J3_0_1" shape="0.00,6.40 6.40,6.40 6.40,0.00 2.84,0.71 1.60,1.60 0.71,2.84 0.18,4.44">
        <request index="0" response="00" foes="00" cont="0"/>
        <request index="1" response="00" foes="00" cont="0"/>
    </junction>

    <connection from="E0" to="E1" fromLane="0" toLane="0" via=":J1_0_0" dir="r" state="M"/>
    <connection from="E0" to="E1" fromLane="1" toLane="1" via=":J1_0_1" dir="r" state="M"/>
    <connection from="E1" to="E2" fromLane="0" toLane="0" via=":J2_0_0" dir="r" state="M"/>
    <connection from="E1" to="E2" fromLane="1" toLane="1" via=":J2_0_1" dir="r" state="M"/>
    <connection from="E2" to="E3" fromLane="0" toLane="0" via=":J3_0_0" dir="r" state="M"/>
    <connection from="E2" to="E3" fromLane="1" toLane="1" via=":J3_0_1" dir="r" state="M"/>
    <connection from="E3" to="E0" fromLane="0" toLane="0" via=":J0_0_0" dir="r" state="M"/>
    <connection from="E3" to="E0" fromLane="1" toLane="1" via=":J0_0_1" dir="r" state="M"/>

    <connection from=":J0_0" to="E0" fromLane="0" toLane="0" dir="r" state="M"/>
    <connection from=":J0_0" to="E0" fromLane="1" toLane="1" dir="r" state="M"/>
    <connection from=":J1_0" to="E1" fromLane="0" toLane="0" dir="r" state="M"/>
    <connection from=":J1_0" to="E1" fromLane="1" toLane="1" dir="r" state="M"/>
    <connection from=":J2_0" to="E2" fromLane="0" toLane="0" dir="r" state="M"/>
    <connection from=":J2_0" to="E2" fromLane="1" toLane="1" dir="r" state="M"/>
    <connection from=":J3_0" to="E3" fromLane="0" toLane="0" dir="r" state="M"/>
    <connection from=":J3_0" to="E3" fromLane="1" toLane="1" dir="r" state="M"/>

</net>
