<?xml version="1.0" encoding="UTF-8"?>

<!-- generated on 2022-07-01 11:55:11 by Eclipse SUMO netconvert Version 1.13.0
<configuration xmlns:xsi="http://www.w3.org/2001/XMLSchema-instance" xsi:noNamespaceSchemaLocation="http://sumo.dlr.de/xsd/netconvertConfiguration.xsd">

    <input>
        <type-files value="/usr/share/sumo/data/typemap/osmNetconvert.typ.xml"/>
        <osm-files value="osm_bbox.osm.xml.gz"/>
    </input>

    <output>
        <output-file value="osm.net.xml"/>
        <output.street-names value="true"/>
        <output.original-names value="true"/>
    </output>

    <projection>
        <proj.utm value="true"/>
    </projection>

    <processing>
        <geometry.remove value="true"/>
        <roundabouts.guess value="true"/>
    </processing>

    <tls_building>
        <tls.discard-simple value="true"/>
        <tls.join value="true"/>
        <tls.guess-signals value="true"/>
        <tls.default-type value="actuated"/>
    </tls_building>

    <ramp_guessing>
        <ramps.guess value="true"/>
    </ramp_guessing>

    <edge_removal>
        <keep-edges.by-vclass value="passenger"/>
    </edge_removal>

    <junctions>
        <junctions.join value="true"/>
        <junctions.corner-detail value="5"/>
    </junctions>

    <report>
        <verbose value="true"/>
        <aggregate-warnings value="5"/>
    </report>

</configuration>
-->

<net version="1.9" junctionCornerDetail="5" limitTurnSpeed="5.50" xmlns:xsi="http://www.w3.org/2001/XMLSchema-instance" xsi:noNamespaceSchemaLocation="http://sumo.dlr.de/xsd/net_file.xsd">

    <location netOffset="-725273.39,-4371471.17" convBoundary="0.00,0.00,1365.05,846.32" origBoundary="-0.384603,39.462997,-0.365342,39.473034" projParameter="+proj=utm +zone=30 +ellps=WGS84 +datum=WGS84 +units=m +no_defs"/>

    <type id="highway.bridleway" priority="1" numLanes="1" speed="2.78" allow="pedestrian" oneway="1" width="2.00"/>
    <type id="highway.bus_guideway" priority="1" numLanes="1" speed="27.78" allow="bus" oneway="1"/>
    <type id="highway.cycleway" priority="1" numLanes="1" speed="8.33" allow="bicycle" oneway="0" width="1.00"/>
    <type id="highway.footway" priority="1" numLanes="1" speed="2.78" allow="pedestrian" oneway="1" width="2.00"/>
    <type id="highway.ford" priority="1" numLanes="1" speed="2.78" allow="army" oneway="0"/>
    <type id="highway.living_street" priority="2" numLanes="1" speed="2.78" disallow="tram rail_urban rail rail_electric rail_fast ship" oneway="0"/>
    <type id="highway.motorway" priority="14" numLanes="2" speed="39.44" allow="private emergency authority army vip passenger hov taxi bus coach delivery truck trailer motorcycle evehicle custom1 custom2" oneway="1"/>
    <type id="highway.motorway_link" priority="9" numLanes="1" speed="22.22" allow="private emergency authority army vip passenger hov taxi bus coach delivery truck trailer motorcycle evehicle custom1 custom2" oneway="1"/>
    <type id="highway.path" priority="1" numLanes="1" speed="2.78" allow="pedestrian bicycle" oneway="0" width="2.00"/>
    <type id="highway.pedestrian" priority="1" numLanes="1" speed="2.78" allow="pedestrian" oneway="1" width="2.00"/>
    <type id="highway.primary" priority="12" numLanes="2" speed="27.78" disallow="tram rail_urban rail rail_electric rail_fast ship" oneway="0"/>
    <type id="highway.primary_link" priority="7" numLanes="1" speed="22.22" disallow="tram rail_urban rail rail_electric rail_fast ship" oneway="0"/>
    <type id="highway.raceway" priority="15" numLanes="2" speed="83.33" allow="vip" oneway="0"/>
    <type id="highway.residential" priority="3" numLanes="1" speed="13.89" disallow="tram rail_urban rail rail_electric rail_fast ship" oneway="0"/>
    <type id="highway.secondary" priority="11" numLanes="1" speed="27.78" disallow="tram rail_urban rail rail_electric rail_fast ship" oneway="0"/>
    <type id="highway.secondary_link" priority="6" numLanes="1" speed="22.22" disallow="tram rail_urban rail rail_electric rail_fast ship" oneway="0"/>
    <type id="highway.service" priority="1" numLanes="1" speed="5.56" allow="pedestrian delivery bicycle" oneway="0"/>
    <type id="highway.stairs" priority="1" numLanes="1" speed="1.39" allow="pedestrian" oneway="1" width="2.00"/>
    <type id="highway.step" priority="1" numLanes="1" speed="1.39" allow="pedestrian" oneway="1" width="2.00"/>
    <type id="highway.steps" priority="1" numLanes="1" speed="1.39" allow="pedestrian" oneway="1" width="2.00"/>
    <type id="highway.tertiary" priority="10" numLanes="1" speed="22.22" disallow="tram rail_urban rail rail_electric rail_fast ship" oneway="0"/>
    <type id="highway.tertiary_link" priority="5" numLanes="1" speed="22.22" disallow="tram rail_urban rail rail_electric rail_fast ship" oneway="0"/>
    <type id="highway.track" priority="1" numLanes="1" speed="5.56" allow="pedestrian motorcycle moped bicycle" oneway="0"/>
    <type id="highway.trunk" priority="13" numLanes="2" speed="27.78" disallow="pedestrian bicycle tram rail_urban rail rail_electric rail_fast ship" oneway="0"/>
    <type id="highway.trunk_link" priority="8" numLanes="1" speed="22.22" disallow="pedestrian bicycle tram rail_urban rail rail_electric rail_fast ship" oneway="0"/>
    <type id="highway.unclassified" priority="4" numLanes="1" speed="13.89" disallow="tram rail_urban rail rail_electric rail_fast ship" oneway="0"/>
    <type id="highway.unsurfaced" priority="1" numLanes="1" speed="8.33" disallow="tram rail_urban rail rail_electric rail_fast ship" oneway="0"/>
    <type id="railway.highspeed" priority="21" numLanes="1" speed="69.44" allow="rail_fast" oneway="1"/>
    <type id="railway.light_rail" priority="19" numLanes="1" speed="27.78" allow="rail_urban" oneway="1"/>
    <type id="railway.preserved" priority="16" numLanes="1" speed="27.78" allow="rail" oneway="1"/>
    <type id="railway.rail" priority="20" numLanes="1" speed="44.44" allow="rail" oneway="1"/>
    <type id="railway.subway" priority="18" numLanes="1" speed="27.78" allow="rail_urban" oneway="1"/>
    <type id="railway.tram" priority="17" numLanes="1" speed="13.89" allow="tram" oneway="1"/>

    <edge id=":1828089463_0" function="internal">
        <lane id=":1828089463_0_0" index="0" disallow="tram rail_urban rail rail_electric rail_fast ship" speed="8.33" length="0.29" shape="754.08,733.30 753.78,733.29"/>
    </edge>
    <edge id=":208232416_0" function="internal">
        <lane id=":208232416_0_0" index="0" disallow="tram rail_urban rail rail_electric rail_fast ship" speed="20.83" length="11.42" shape="945.71,383.75 942.90,381.88 941.19,380.28 939.49,378.66 936.70,376.76"/>
        <lane id=":208232416_0_1" index="1" disallow="tram rail_urban rail rail_electric rail_fast ship" speed="20.83" length="11.42" shape="947.28,380.96 944.48,379.10 942.78,377.50 941.08,375.89 938.30,373.99"/>
    </edge>
    <edge id=":208232416_2" function="internal">
        <lane id=":208232416_2_0" index="0" disallow="tram rail_urban rail rail_electric rail_fast ship" speed="6.48" length="9.03" shape="948.85,378.17 946.88,376.66 945.88,374.89 945.85,372.85 946.78,370.56"/>
    </edge>
    <edge id=":208232422_0" function="internal">
        <lane id=":208232422_0_0" index="0" disallow="tram rail_urban rail rail_electric rail_fast ship" speed="13.89" length="10.97" shape="956.69,342.51 966.20,347.88"/>
        <lane id=":208232422_0_1" index="1" disallow="tram rail_urban rail rail_electric rail_fast ship" speed="13.89" length="10.97" shape="955.10,345.29 964.65,350.68"/>
        <lane id=":208232422_0_2" index="2" disallow="tram rail_urban rail rail_electric rail_fast ship" speed="13.89" length="10.97" shape="953.51,348.06 963.09,353.48"/>
    </edge>
    <edge id=":208232422_3" function="internal">
        <lane id=":208232422_3_0" index="0" disallow="tram rail_urban rail rail_electric rail_fast ship" speed="7.34" length="11.59" shape="955.52,355.59 957.74,352.46 960.00,350.59 962.30,350.00 964.65,350.68"/>
        <lane id=":208232422_3_1" index="1" disallow="tram rail_urban rail rail_electric rail_fast ship" speed="6.52" length="8.93" shape="955.52,355.59 957.03,353.67 958.80,352.67 960.82,352.61 963.09,353.48"/>
    </edge>
    <edge id=":208232436_0" function="internal">
        <lane id=":208232436_0_0" index="0" disallow="tram rail_urban rail rail_electric rail_fast ship" speed="13.89" length="11.21" shape="896.66,308.09 906.45,313.64"/>
        <lane id=":208232436_0_1" index="1" disallow="tram rail_urban rail rail_electric rail_fast ship" speed="13.89" length="11.21" shape="895.10,310.88 904.85,316.41"/>
        <lane id=":208232436_0_2" index="2" disallow="tram rail_urban rail rail_electric rail_fast ship" speed="13.89" length="11.21" shape="893.54,313.68 903.26,319.19"/>
    </edge>
    <edge id=":208232436_3" function="internal">
        <lane id=":208232436_3_0" index="0" disallow="tram rail_urban rail rail_electric rail_fast ship" speed="6.52" length="9.02" shape="893.54,313.68 895.50,315.17 896.51,316.94 896.57,318.99 895.69,321.30"/>
    </edge>
    <edge id=":208232446_0" function="internal">
        <lane id=":208232446_0_0" index="0" disallow="tram rail_urban rail rail_electric rail_fast ship" speed="13.89" length="11.25" shape="887.23,347.98 877.53,342.24"/>
        <lane id=":208232446_0_1" index="1" disallow="tram rail_urban rail rail_electric rail_fast ship" speed="13.89" length="11.25" shape="888.84,345.21 879.18,339.50"/>
    </edge>
    <edge id=":208232446_2" function="internal">
        <lane id=":208232446_2_0" index="0" disallow="tram rail_urban rail rail_electric rail_fast ship" speed="6.43" length="9.03" shape="886.77,337.46 885.26,339.44 883.50,340.44 881.47,340.46 879.18,339.50"/>
    </edge>
    <edge id=":208232450_0" function="internal">
        <lane id=":208232450_0_0" index="0" disallow="tram rail_urban rail rail_electric rail_fast ship" speed="13.89" length="11.18" shape="858.48,330.79 848.90,325.03"/>
        <lane id=":208232450_0_1" index="1" disallow="tram rail_urban rail rail_electric rail_fast ship" speed="13.89" length="11.18" shape="860.13,328.05 850.55,322.29"/>
    </edge>
    <edge id=":208232450_2" function="internal">
        <lane id=":208232450_2_0" index="0" disallow="tram rail_urban rail rail_electric rail_fast ship" speed="6.51" length="9.02" shape="860.13,328.05 858.22,326.49 857.26,324.69 857.26,322.65 858.21,320.37"/>
    </edge>
    <edge id=":208232455_0" function="internal">
        <lane id=":208232455_0_0" index="0" disallow="tram rail_urban rail rail_electric rail_fast ship" speed="13.89" length="10.88" shape="868.43,292.32 877.87,297.63"/>
        <lane id=":208232455_0_1" index="1" disallow="tram rail_urban rail rail_electric rail_fast ship" speed="13.89" length="10.88" shape="866.84,295.10 876.32,300.43"/>
        <lane id=":208232455_0_2" index="2" disallow="tram rail_urban rail rail_electric rail_fast ship" speed="13.89" length="10.88" shape="865.25,297.88 874.77,303.23"/>
    </edge>
    <edge id=":208232455_3" function="internal">
        <lane id=":208232455_3_0" index="0" disallow="tram rail_urban rail rail_electric rail_fast ship" speed="7.36" length="11.53" shape="867.20,305.33 869.45,302.22 871.71,300.37 874.00,299.77 876.32,300.43"/>
        <lane id=":208232455_3_1" index="1" disallow="tram rail_urban rail rail_electric rail_fast ship" speed="6.53" length="8.88" shape="867.20,305.33 868.73,303.43 870.51,302.44 872.52,302.38 874.77,303.23"/>
    </edge>
    <edge id=":25767293_0" function="internal">
        <lane id=":25767293_0_0" index="0" disallow="tram rail_urban rail rail_electric rail_fast ship" speed="11.11" length="5.81" shape="545.82,435.27 542.07,441.38"/>
        <lane id=":25767293_0_1" index="1" disallow="tram rail_urban rail rail_electric rail_fast ship" speed="11.11" length="5.81" shape="545.82,435.27 542.45,438.20"/>
    </edge>
    <edge id=":25767293_2" function="internal">
        <lane id=":25767293_2_0" index="0" disallow="tram rail_urban rail rail_electric rail_fast ship" speed="11.42" length="8.20" shape="549.92,428.08 542.83,435.02"/>
        <lane id=":25767293_2_1" index="1" disallow="tram rail_urban rail rail_electric rail_fast ship" speed="10.32" length="8.20" shape="549.92,428.08 548.05,429.62 546.79,430.92 545.42,431.74 543.21,431.84"/>
        <lane id=":25767293_2_2" index="2" disallow="tram rail_urban rail rail_electric rail_fast ship" speed="9.39" length="8.20" shape="549.92,428.08 548.25,428.95 546.94,429.16 545.53,428.98 543.58,428.67"/>
    </edge>
    <edge id=":25767311_0" function="internal">
        <lane id=":25767311_0_0" index="0" disallow="tram rail_urban rail rail_electric rail_fast ship" speed="6.86" length="8.85" shape="220.50,714.33 222.01,716.44 223.73,717.71 225.65,718.16 227.77,717.78"/>
    </edge>
    <edge id=":25767311_1" function="internal">
        <lane id=":25767311_1_0" index="0" disallow="tram rail_urban rail rail_electric rail_fast ship" speed="8.33" length="10.39" shape="217.71,715.90 219.26,718.59 220.34,720.46 221.29,722.36 222.44,725.13"/>
    </edge>
    <edge id=":25767311_2" function="internal">
        <lane id=":25767311_2_0" index="0" disallow="tram rail_urban rail rail_electric rail_fast ship" speed="13.89" length="16.21" shape="212.82,724.04 227.77,717.78"/>
    </edge>
    <edge id=":25767311_3" function="internal">
        <lane id=":25767311_3_0" index="0" disallow="tram rail_urban rail rail_electric rail_fast ship" speed="7.00" length="10.84" shape="212.82,724.04 216.38,722.86 219.17,722.65 221.19,723.40 222.44,725.13"/>
    </edge>
    <edge id=":25767319_0" function="internal">
        <lane id=":25767319_0_0" index="0" disallow="tram rail_urban rail rail_electric rail_fast ship" speed="6.53" length="8.99" shape="551.99,734.47 549.53,734.73 547.73,735.70 546.59,737.39 546.12,739.78"/>
    </edge>
    <edge id=":25767319_1" function="internal">
        <lane id=":25767319_1_0" index="0" disallow="tram rail_urban rail rail_electric rail_fast ship" speed="6.39" length="8.93" shape="551.99,734.47 549.57,734.04 547.90,732.94 546.97,731.16 546.80,728.70"/>
    </edge>
    <edge id=":25767364_0" function="internal">
        <lane id=":25767364_0_0" index="0" disallow="tram rail_urban rail rail_electric rail_fast ship" speed="6.91" length="8.39" shape="872.24,734.33 870.53,733.05 868.67,732.51 866.69,732.71 864.56,733.65"/>
    </edge>
    <edge id=":25767364_1" function="internal">
        <lane id=":25767364_1_0" index="0" disallow="tram rail_urban rail rail_electric rail_fast ship" speed="8.33" length="9.78" shape="872.24,734.33 865.45,727.30"/>
    </edge>
    <edge id=":25767364_2" function="internal">
        <lane id=":25767364_2_0" index="0" disallow="tram rail_urban rail rail_electric rail_fast ship" speed="11.11" length="10.00" shape="872.12,727.40 870.48,729.81 868.99,731.17 867.17,732.20 864.56,733.65"/>
    </edge>
    <edge id=":25767364_3" function="internal">
        <lane id=":25767364_3_0" index="0" disallow="tram rail_urban rail rail_electric rail_fast ship" speed="5.71" length="8.19" shape="872.12,727.40 870.75,729.01 869.19,729.53 867.42,728.96 865.45,727.30"/>
    </edge>
    <edge id=":25767365_0" function="internal">
        <lane id=":25767365_0_0" index="0" disallow="tram rail_urban rail rail_electric rail_fast ship" speed="8.33" length="11.85" shape="799.03,661.62 790.08,653.85"/>
    </edge>
    <edge id=":25767365_1" function="internal">
        <lane id=":25767365_1_0" index="0" disallow="tram rail_urban rail rail_electric rail_fast ship" speed="7.25" length="9.48" shape="799.03,661.62 797.54,659.75 796.90,657.69 797.09,655.43 798.14,652.98"/>
    </edge>
    <edge id=":25767365_2" function="internal">
        <lane id=":25767365_2_0" index="0" disallow="tram rail_urban rail rail_electric rail_fast ship" speed="5.75" length="9.17" shape="789.18,660.75 791.47,659.29 792.39,657.65 791.92,655.84 790.08,653.85"/>
    </edge>
    <edge id=":25767365_3" function="internal">
        <lane id=":25767365_3_0" index="0" disallow="tram rail_urban rail rail_electric rail_fast ship" speed="11.11" length="12.11" shape="789.18,660.75 792.15,659.26 794.43,657.71 796.33,655.73 798.14,652.98"/>
    </edge>
    <edge id=":25767367_0" function="internal">
        <lane id=":25767367_0_0" index="0" disallow="tram rail_urban rail rail_electric rail_fast ship" speed="8.33" length="6.70" shape="718.32,586.91 716.88,585.53 715.89,584.60 714.86,583.70 713.32,582.45"/>
    </edge>
    <edge id=":25767367_1" function="internal">
        <lane id=":25767367_1_0" index="0" disallow="tram rail_urban rail rail_electric rail_fast ship" speed="7.54" length="6.27" shape="719.39,582.80 717.40,583.18 715.73,583.25 714.37,583.01 713.32,582.45"/>
    </edge>
    <edge id=":25767369_0" function="internal">
        <lane id=":25767369_0_0" index="0" disallow="tram rail_urban rail rail_electric rail_fast ship" speed="8.33" length="11.06" shape="653.52,524.73 645.60,517.02"/>
    </edge>
    <edge id=":25767369_1" function="internal">
        <lane id=":25767369_1_0" index="0" disallow="tram rail_urban rail rail_electric rail_fast ship" speed="8.33" length="10.01" shape="653.52,524.73 652.00,522.77 651.14,520.57 650.96,518.13 651.44,515.45"/>
    </edge>
    <edge id=":25767369_2" function="internal">
        <lane id=":25767369_2_0" index="0" disallow="tram rail_urban rail rail_electric rail_fast ship" speed="7.23" length="9.45" shape="647.11,525.54 648.03,523.32 648.08,521.16 647.27,519.06 645.60,517.02"/>
    </edge>
    <edge id=":25767369_3" function="internal">
        <lane id=":25767369_3_0" index="0" disallow="tram rail_urban rail rail_electric rail_fast ship" speed="11.11" length="11.02" shape="647.11,525.54 648.68,522.83 649.71,520.69 650.53,518.45 651.44,515.45"/>
    </edge>
    <edge id=":25767430_0" function="internal">
        <lane id=":25767430_0_0" index="0" disallow="tram rail_urban rail rail_electric rail_fast ship" speed="6.72" length="9.36" shape="632.41,558.29 635.01,557.89 636.88,556.81 638.03,555.05 638.45,552.62"/>
    </edge>
    <edge id=":25767430_1" function="internal">
        <lane id=":25767430_1_0" index="0" disallow="tram rail_urban rail rail_electric rail_fast ship" speed="2.78" length="4.67" shape="632.41,558.29 633.63,559.06 634.05,559.85 633.67,560.66 632.50,561.49"/>
    </edge>
    <edge id=":25767430_2" function="internal">
        <lane id=":25767430_2_0" index="0" disallow="tram rail_urban rail rail_electric rail_fast ship" speed="6.36" length="9.03" shape="637.95,567.06 637.71,564.58 636.72,562.82 634.98,561.79 632.50,561.49"/>
    </edge>
    <edge id=":25767430_3" function="internal">
        <lane id=":25767430_3_0" index="0" disallow="tram rail_urban rail rail_electric rail_fast ship" speed="13.89" length="14.45" shape="637.95,567.06 638.45,552.62"/>
    </edge>
    <edge id=":25767432_0" function="internal">
        <lane id=":25767432_0_0" index="0" disallow="tram rail_urban rail rail_electric rail_fast ship" speed="6.52" length="9.03" shape="628.10,661.93 630.55,661.67 632.34,660.68 633.46,658.97 633.91,656.54"/>
    </edge>
    <edge id=":25767432_1" function="internal">
        <lane id=":25767432_1_0" index="0" disallow="tram rail_urban rail rail_electric rail_fast ship" speed="13.89" length="11.18" shape="628.10,661.93 639.27,662.30"/>
    </edge>
    <edge id=":25767432_2" function="internal">
        <lane id=":25767432_2_0" index="0" disallow="tram rail_urban rail rail_electric rail_fast ship" speed="13.89" length="11.18" shape="633.45,667.71 633.91,656.54"/>
    </edge>
    <edge id=":25767432_3" function="internal">
        <lane id=":25767432_3_0" index="0" disallow="tram rail_urban rail rail_electric rail_fast ship" speed="6.53" length="4.10" shape="633.45,667.71 633.90,665.28 634.79,663.91"/>
    </edge>
    <edge id=":25767432_4" function="internal">
        <lane id=":25767432_4_0" index="0" disallow="tram rail_urban rail rail_electric rail_fast ship" speed="6.53" length="4.94" shape="634.79,663.91 635.02,663.56 636.81,662.57 639.27,662.30"/>
    </edge>
    <edge id=":25767434_0" function="internal">
        <lane id=":25767434_0_0" index="0" disallow="tram rail_urban rail rail_electric rail_fast ship" speed="8.33" length="11.41" shape="636.37,736.68 633.19,736.90 630.68,737.01 628.16,737.01 624.98,736.93"/>
    </edge>
    <edge id=":25767434_1" function="internal">
        <lane id=":25767434_1_0" index="0" disallow="tram rail_urban rail rail_electric rail_fast ship" speed="6.27" length="9.04" shape="636.37,736.68 633.86,736.51 632.09,735.56 631.08,733.83 630.83,731.32"/>
    </edge>
    <edge id=":25767434_2" function="internal">
        <lane id=":25767434_2_0" index="0" disallow="tram rail_urban rail rail_electric rail_fast ship" speed="6.49" length="9.03" shape="630.35,742.73 630.10,740.26 629.13,738.47 627.42,737.36 624.98,736.93"/>
    </edge>
    <edge id=":25767434_3" function="internal">
        <lane id=":25767434_3_0" index="0" disallow="tram rail_urban rail rail_electric rail_fast ship" speed="13.89" length="11.41" shape="630.35,742.73 630.83,731.32"/>
    </edge>
    <edge id=":25767448_0" function="internal">
        <lane id=":25767448_0_0" index="0" disallow="tram rail_urban rail rail_electric rail_fast ship" speed="13.89" length="11.16" shape="546.36,658.90 557.51,659.42"/>
    </edge>
    <edge id=":25767448_1" function="internal">
        <lane id=":25767448_1_0" index="0" disallow="tram rail_urban rail rail_electric rail_fast ship" speed="6.49" length="4.19" shape="551.75,664.83 552.16,662.39 553.09,660.95"/>
    </edge>
    <edge id=":25767448_2" function="internal">
        <lane id=":25767448_2_0" index="0" disallow="tram rail_urban rail rail_electric rail_fast ship" speed="6.49" length="4.85" shape="553.09,660.95 553.27,660.67 555.05,659.68 557.51,659.42"/>
    </edge>
    <edge id=":29834287_0" function="internal">
        <lane id=":29834287_0_0" index="0" disallow="tram rail_urban rail rail_electric rail_fast ship" speed="6.47" length="9.03" shape="873.37,339.74 871.09,338.78 869.05,338.78 867.27,339.76 865.73,341.71"/>
    </edge>
    <edge id=":29834287_1" function="internal">
        <lane id=":29834287_1_0" index="0" disallow="tram rail_urban rail rail_electric rail_fast ship" speed="13.89" length="11.20" shape="873.37,339.74 863.77,333.97"/>
        <lane id=":29834287_1_1" index="1" disallow="tram rail_urban rail rail_electric rail_fast ship" speed="13.89" length="11.20" shape="875.02,337.00 865.42,331.23"/>
    </edge>
    <edge id=":29935874_0" function="internal">
        <lane id=":29935874_0_0" index="0" disallow="tram rail_urban rail rail_electric rail_fast ship" speed="6.53" length="18.06" shape="133.60,824.64 132.94,830.91 131.91,832.90 130.50,830.60 128.73,824.01"/>
    </edge>
    <edge id=":29935874_1" function="internal">
        <lane id=":29935874_1_0" index="0" disallow="tram rail_urban rail rail_electric rail_fast ship" speed="3.65" length="4.69" shape="130.40,824.46 129.44,825.54 128.59,825.82 127.85,825.31 127.22,824.01"/>
    </edge>
    <edge id=":30065880_0" function="internal">
        <lane id=":30065880_0_0" index="0" disallow="tram rail_urban rail rail_electric rail_fast ship" speed="13.89" length="11.25" shape="87.80,746.45 82.63,736.46"/>
    </edge>
    <edge id=":30065880_1" function="internal">
        <lane id=":30065880_1_0" index="0" disallow="tram rail_urban rail rail_electric rail_fast ship" speed="6.45" length="8.91" shape="87.80,746.45 87.05,744.24 87.26,742.29 88.42,740.59 90.53,739.14"/>
    </edge>
    <edge id=":30886277_0" function="internal">
        <lane id=":30886277_0_0" index="0" disallow="tram rail_urban rail rail_electric rail_fast ship" speed="13.89" length="9.82" shape="139.74,715.08 139.33,717.92 139.15,719.88 139.04,721.84 138.87,724.71"/>
        <lane id=":30886277_0_1" index="1" disallow="tram rail_urban rail rail_electric rail_fast ship" speed="13.89" length="9.82" shape="136.58,714.57 136.16,717.49 135.97,719.51 135.86,721.53 135.68,724.48"/>
    </edge>
    <edge id=":30886277_2" function="internal">
        <lane id=":30886277_2_0" index="0" disallow="tram rail_urban rail rail_electric rail_fast ship" speed="3.65" length="1.44" shape="136.58,714.57 135.60,715.63"/>
    </edge>
    <edge id=":30886277_8" function="internal">
        <lane id=":30886277_8_0" index="0" disallow="tram rail_urban rail rail_electric rail_fast ship" speed="3.65" length="3.23" shape="135.60,715.63 134.75,715.89 134.02,715.37 133.42,714.06"/>
    </edge>
    <edge id=":30886277_3" function="internal">
        <lane id=":30886277_3_0" index="0" disallow="tram rail_urban rail rail_electric rail_fast ship" speed="9.10" length="9.64" shape="125.32,721.41 127.13,720.15 128.56,718.42 129.60,716.22 130.27,713.55"/>
    </edge>
    <edge id=":30886277_4" function="internal">
        <lane id=":30886277_4_0" index="0" disallow="tram rail_urban rail rail_electric rail_fast ship" speed="6.87" length="14.42" shape="125.32,721.41 130.08,719.50 133.40,719.38 135.26,721.04 135.68,724.48"/>
    </edge>
    <edge id=":30886277_5" function="internal">
        <lane id=":30886277_5_0" index="0" disallow="tram rail_urban rail rail_electric rail_fast ship" speed="13.89" length="10.39" shape="129.30,724.03 129.49,720.91 129.60,718.77 129.81,716.64 130.27,713.55"/>
        <lane id=":30886277_5_1" index="1" disallow="tram rail_urban rail rail_electric rail_fast ship" speed="13.89" length="10.39" shape="132.49,724.26 132.67,721.22 132.78,719.14 132.98,717.07 133.42,714.06"/>
    </edge>
    <edge id=":30886277_7" function="internal">
        <lane id=":30886277_7_0" index="0" disallow="tram rail_urban rail rail_electric rail_fast ship" speed="3.65" length="1.44" shape="132.49,724.26 133.37,723.12"/>
    </edge>
    <edge id=":30886277_9" function="internal">
        <lane id=":30886277_9_0" index="0" disallow="tram rail_urban rail rail_electric rail_fast ship" speed="3.65" length="3.23" shape="133.37,723.12 134.20,722.77 134.97,723.23 135.68,724.48"/>
    </edge>
    <edge id=":30886310_0" function="internal">
        <lane id=":30886310_0_0" index="0" disallow="tram rail_urban rail rail_electric rail_fast ship" speed="6.80" length="8.26" shape="39.28,380.13 40.55,381.74 42.17,382.68 44.14,382.95 46.46,382.54"/>
    </edge>
    <edge id=":30886310_1" function="internal">
        <lane id=":30886310_1_0" index="0" disallow="tram rail_urban rail rail_electric rail_fast ship" speed="22.22" length="9.67" shape="39.28,380.13 44.03,388.56"/>
    </edge>
    <edge id=":30886320_0" function="internal">
        <lane id=":30886320_0_0" index="0" disallow="tram rail_urban rail rail_electric rail_fast ship" speed="5.95" length="9.27" shape="143.63,546.46 141.12,547.23 139.76,548.60 139.55,550.57 140.49,553.14"/>
    </edge>
    <edge id=":30886320_1" function="internal">
        <lane id=":30886320_1_0" index="0" disallow="tram rail_urban rail rail_electric rail_fast ship" speed="13.89" length="21.37" shape="143.63,546.46 137.51,547.63 133.40,548.82 129.31,550.10 123.24,551.57"/>
        <lane id=":30886320_1_1" index="1" disallow="tram rail_urban rail rail_electric rail_fast ship" speed="13.89" length="21.37" shape="143.15,543.30 136.98,544.47 132.84,545.67 128.71,546.96 122.60,548.44"/>
        <lane id=":30886320_1_2" index="2" disallow="tram rail_urban rail rail_electric rail_fast ship" speed="13.89" length="21.37" shape="142.67,540.13 136.45,541.32 132.27,542.52 128.12,543.81 121.95,545.30"/>
        <lane id=":30886320_1_3" index="3" disallow="tram rail_urban rail rail_electric rail_fast ship" speed="13.89" length="21.37" shape="142.18,536.97 135.92,538.16 131.71,539.36 127.52,540.67 121.31,542.17"/>
        <lane id=":30886320_1_4" index="4" disallow="tram rail_urban rail rail_electric rail_fast ship" speed="13.89" length="21.37" shape="141.70,533.81 135.39,535.00 131.15,536.21 126.93,537.53 120.67,539.03"/>
    </edge>
    <edge id=":30886320_6" function="internal">
        <lane id=":30886320_6_0" index="0" disallow="tram rail_urban rail rail_electric rail_fast ship" speed="18.05" length="29.87" shape="123.21,529.37 137.89,555.07"/>
        <lane id=":30886320_6_1" index="1" disallow="tram rail_urban rail rail_electric rail_fast ship" speed="18.05" length="29.87" shape="123.21,529.37 135.29,556.99"/>
    </edge>
    <edge id=":30886320_8" function="internal">
        <lane id=":30886320_8_0" index="0" disallow="tram rail_urban rail rail_electric rail_fast ship" speed="7.61" length="15.55" shape="123.21,529.37 125.33,534.36 125.72,538.16 124.38,540.76 121.31,542.17"/>
        <lane id=":30886320_8_1" index="1" disallow="tram rail_urban rail rail_electric rail_fast ship" speed="6.82" length="12.22" shape="123.21,529.37 124.70,533.06 124.78,535.90 123.43,537.89 120.67,539.03"/>
        <lane id=":30886320_8_2" index="2" disallow="tram rail_urban rail rail_electric rail_fast ship" speed="5.95" length="8.98" shape="123.21,529.37 124.07,531.76 123.83,533.65 122.48,535.03 120.02,535.90"/>
    </edge>
    <edge id=":31781815_0" function="internal">
        <lane id=":31781815_0_0" index="0" disallow="tram rail_urban rail rail_electric rail_fast ship" speed="7.47" length="9.61" shape="158.73,603.66 160.52,606.11 162.39,607.71 164.34,608.44 166.37,608.31"/>
    </edge>
    <edge id=":31781815_1" function="internal">
        <lane id=":31781815_1_0" index="0" disallow="tram rail_urban rail rail_electric rail_fast ship" speed="11.11" length="12.22" shape="158.73,603.66 160.38,606.75 161.33,608.99 162.43,611.12 164.52,613.90"/>
        <lane id=":31781815_1_1" index="1" disallow="tram rail_urban rail rail_electric rail_fast ship" speed="11.11" length="12.22" shape="156.05,605.40 157.77,608.60 158.77,610.91 159.92,613.10 162.08,615.98"/>
        <lane id=":31781815_1_2" index="2" disallow="tram rail_urban rail rail_electric rail_fast ship" speed="11.11" length="12.22" shape="153.37,607.15 155.15,610.45 156.20,612.83 157.40,615.09 159.65,618.05"/>
    </edge>