<?xml version="1.0" encoding="UTF-8"?>

<!-- generated on 2022-07-01 11:55:11 by Eclipse SUMO duarouter Version 1.13.0
<configuration xmlns:xsi="http://www.w3.org/2001/XMLSchema-instance" xsi:noNamespaceSchemaLocation="http://sumo.dlr.de/xsd/duarouterConfiguration.xsd">

    <input>
        <net-file value="/home/mickael/Sumo/2022-07-01-11-55-07/osm.net.xml"/>
        <route-files value="/home/mickael/Sumo/2022-07-01-11-55-07/osm.passenger.trips.xml"/>
    </input>

    <output>
        <output-file value="/home/mickael/Sumo/2022-07-01-11-55-07/osm.passenger.trips.xml.tmp"/>
        <write-trips value="true"/>
    </output>

    <time>
        <begin value="0"/>
        <end value="3600"/>
    </time>

    <report>
        <no-warnings value="true"/>
        <ignore-errors value="true"/>
        <no-step-log value="true"/>
    </report>

</configuration>
-->

<routes xmlns:xsi="http://www.w3.org/2001/XMLSchema-instance" xsi:noNamespaceSchemaLocation="http://sumo.dlr.de/xsd/routes_file.xsd">
    <vType id="passenger" vClass="passenger"/>
    <vType id="rescue" vClass="emergency" speedFactor="1.5">
        <param key="has.bluelight.device" value="true"/>
    </vType>
    <trip id="1" type="passenger" depart="1.00" departLane="best" departSpeed="max" from="98711574#0" to="212738032#0"/>
    <trip id="2" type="passenger" depart="2.00" departLane="best" from="627037403" to="-94124274"/>
    <trip id="3" type="passenger" depart="3.00" departLane="best" departSpeed="max" from="5073111" to="52372529#0"/>
    <trip id="4" type="passenger" depart="4.00" departLane="best" departSpeed="max" from="5073111" to="6277204#2"/>
    <trip id="5" type="passenger" depart="5.00" departLane="best" from="95512944#1" to="-721219459#1"/>
    <trip id="6" type="passenger" depart="6.00" departLane="best" from="95512944#0" to="800130446#0"/>
    <trip id="7" type="passenger" depart="7.00" departLane="best" from="5136425" to="4704753"/>
    <trip id="8" type="passenger" depart="8.00" departLane="best" departSpeed="max" from="98711574#0" to="487465952"/>
    <trip id="9" type="passenger" depart="9.00" departLane="best" from="97020724#2" to="6277204#2"/>
    <trip id="10" type="passenger" depart="10.00" departLane="best" departSpeed="max" from="624442652#0" to="627037403"/>
    <trip id="11" type="passenger" depart="10.00" departLane="best" from="95512944#2" to="640493168#4"/>
    <trip id="12" type="passenger" depart="10.00" departLane="best" departSpeed="max" from="5073111" to="4721157#1"/>
    <trip id="13" type="passenger" depart="10.00" departLane="best" from="314809790#0" to="4704753"/>
    <trip id="14" type="passenger" depart="10.00" departLane="best" from="61720119#0" to="4704753"/>
    <trip id="15" type="passenger" depart="10.00" departLane="best" from="721295134#0" to="640493168#3"/>
    <trip id="16" type="passenger" depart="10.00" departLane="best" departSpeed="max" from="5073109#0" to="94131898#0"/>
    <trip id="17" type="passenger" depart="10.00" departLane="best" from="5011437#0" to="5073108#0"/>
    <trip id="18" type="passenger" depart="10.00" departLane="best" from="98711574#5" to="668856274#2"/>
    <trip id="19" type="passenger" depart="10.00" departLane="best" from="640493168#3" to="721295134#0"/>
    <trip id="20" type="passenger" depart="10.00" departLane="best" departSpeed="max" from="5073111" to="-97020724#1"/>
    <trip id="21" type="passenger" depart="10.00" departLane="best" departSpeed="max" from="5098787#0" to="4704753"/>
    <trip id="22" type="passenger" depart="10.00" departLane="best" departSpeed="max" from="5073111" to="98711537#5"/>
    <trip id="23" type="passenger" depart="10.00" departLane="best" from="98711539" to="487465952"/>
    <trip id="24" type="passenger" depart="10.00" departLane="best" from="721295134#0" to="5073108#3"/>
    <trip id="25" type="passenger" depart="10.00" departLane="best" departSpeed="max" from="98711574#0" to="5098775"/>
    <trip id="26" type="passenger" depart="10.00" departLane="best" departSpeed="max" from="5098774#0" to="4704753"/>
    <trip id="28" type="passenger" depart="10.00" departLane="best" from="668856275#0" to="98711532#0"/>
    <trip id="29" type="passenger" depart="10.00" departLane="best" departSpeed="max" from="624442652#0" to="4704753"/>
    <trip id="30" type="passenger" depart="10.00" departLane="best" from="314809790#0" to="1061908879#0"/>
    <trip id="32" type="passenger" depart="10.00" departLane="best" from="99093093#0" to="61044480"/>
    <trip id="33" type="passenger" depart="10.00" departLane="best" from="-97020724#1" to="800130446#0"/>
    <trip id="34" type="passenger" depart="10.00" departLane="best" departSpeed="max" from="802717141" to="61044480"/>
    <trip id="35" type="passenger" depart="10.00" departLane="best" departSpeed="max" from="5098774#0" to="668856274#2"/>
    <trip id="37" type="passenger" depart="10.00" departLane="best" from="98711539" to="4704753"/>
    <trip id="38" type="passenger" depart="10.00" departLane="best" departSpeed="max" from="640493168#0" to="4704753"/>
    <trip id="39" type="passenger" depart="10.00" departLane="best" departSpeed="max" from="5098787#0" to="668856274#2"/>
    <trip id="40" type="passenger" depart="10.00" departLane="best" departSpeed="max" from="94124274" to="61044480"/>
    <trip id="41" type="passenger" depart="10.00" departLane="best" from="95512934#4" to="61044480"/>
    <trip id="42" type="passenger" depart="10.00" departLane="best" from="-97020724#3" to="98711537#5"/>
    <trip id="43" type="passenger" depart="10.00" departLane="best" departSpeed="max" from="5098787#0" to="1061908879#0"/>
    <trip id="44" type="passenger" depart="10.00" departLane="best" from="19873395" to="95512935#0"/>
    <trip id="46" type="passenger" depart="10.00" departLane="best" departSpeed="max" from="640493168#0" to="627037403"/>
    <trip id="47" type="passenger" depart="10.00" departLane="best" departSpeed="max" from="5098774#0" to="98711532#0"/>
    <trip id="48" type="passenger" depart="10.00" departLane="best" from="627037403" to="4704753"/>
    <trip id="49" type="passenger" depart="10.00" departLane="best" departSpeed="max" from="640493168#0" to="94131898#0"/>
    <trip id="50" type="passenger" depart="10.00" departLane="best" departSpeed="max" from="5073109#0" to="4823221#0"/>
    <trip id="51" type="passenger" depart="10.00" departLane="best" from="99093093#0" to="668856274#2"/>
    <trip id="52" type="passenger" depart="10.00" departLane="best" from="6277199#0" to="61044480"/>
    <trip id="53" type="passenger" depart="10.00" departLane="best" from="5136421#0" to="6277204#2"/>
    <trip id="54" type="passenger" depart="10.00" departLane="best" departSpeed="max" from="5073111" to="4704753"/>
    <trip id="55" type="passenger" depart="10.00" departLane="best" departSpeed="max" from="5073111" to="98711532#0"/>
    <trip id="57" type="passenger" depart="10.00" departLane="best" departSpeed="max" from="5073111" to="707024130#0"/>
    <trip id="58" type="passenger" depart="10.00" departLane="best" departSpeed="max" from="5073111" to="4704753"/>
    <trip id="59" type="passenger" depart="10.00" departLane="best" departSpeed="max" from="98711574#0" to="6277199#0"/>
    <trip id="60" type="passenger" depart="10.00" departLane="best" departSpeed="max" from="640493168#0" to="95512944#0"/>
    <trip id="61" type="passenger" depart="10.00" departLane="best" from="314809790#0" to="5073110#3"/>
    <trip id="62" type="passenger" depart="10.00" departLane="best" from="627037403" to="5098775"/>
    <trip id="63" type="passenger" depart="10.00" departLane="best" from="98711574#5" to="314809790#0"/>
    <trip id="64" type="passenger" depart="10.00" departLane="best" departSpeed="max" from="624442652#0" to="487465952"/>
    <trip id="65" type="passenger" depart="10.00" departLane="best" from="98711537#3" to="4704753"/>
    <trip id="66" type="passenger" depart="10.00" departLane="best" departSpeed="max" from="5073109#0" to="5098774#2"/>
    <trip id="67" type="passenger" depart="10.00" departLane="best" from="627037403" to="4704753"/>
    <trip id="68" type="passenger" depart="10.00" departLane="best" from="5073115#1" to="98711537#5"/>
    <trip id="69" type="passenger" depart="10.00" departLane="best" from="640493168#3" to="1061908879#0"/>
    <trip id="70" type="passenger" depart="10.00" departLane="best" from="99093093#3" to="98711532#0"/>
    <trip id="71" type="passenger" depart="10.00" departLane="best" departSpeed="max" from="98711574#0" to="98711537#5"/>
    <trip id="72" type="passenger" depart="10.00" departLane="best" departSpeed="max" from="640493168#0" to="4704753"/>
    <trip id="73" type="passenger" depart="10.00" departLane="best" departSpeed="max" from="624442652#0" to="1061908879#0"/>
    <trip id="75" type="passenger" depart="10.00" departLane="best" departSpeed="max" from="5098774#0" to="95512944#0"/>
    <trip id="76" type="passenger" depart="10.00" departLane="best" departSpeed="max" from="640493168#0" to="5073110#3"/>
    <trip id="77" type="passenger" depart="10.00" departLane="best" departSpeed="max" from="98711574#0" to="99093093#0"/>
    <trip id="78" type="passenger" depart="10.00" departLane="best" from="640493168#3" to="800130446#0"/>
    <trip id="79" type="passenger" depart="10.00" departLane="best" from="5011435#0" to="4721157#1"/>
    <trip id="80" type="passenger" depart="10.00" departLane="best" departSpeed="max" from="98711574#0" to="6277204#0"/>
    <trip id="81" type="passenger" depart="10.00" departLane="best" departSpeed="max" from="640493168#0" to="95512935#0"/>
    <trip id="82" type="passenger" depart="10.00" departLane="best" from="171836908" to="6277204#2"/>
    <trip id="83" type="passenger" depart="10.00" departLane="best" departSpeed="max" from="640493168#0" to="98711532#0"/>
    <trip id="84" type="passenger" depart="10.00" departLane="best" departSpeed="max" from="5073111" to="447186569"/>
    <trip id="85" type="passenger" depart="10.00" departLane="best" departSpeed="max" from="98711574#0" to="4704753"/>
    <trip id="86" type="passenger" depart="10.00" departLane="best" from="707024130#0" to="640493168#4"/>
    <trip id="87" type="passenger" depart="10.00" departLane="best" from="627037403" to="6277204#2"/>
    <trip id="88" type="passenger" depart="10.00" departLane="best" from="5073109#1" to="800130446#0"/>
    <trip id="89" type="passenger" depart="10.00" departLane="best" departSpeed="max" from="802717141" to="4721157#1"/>
    <trip id="90" type="passenger" depart="10.00" departLane="best" from="212738032#0" to="5098775"/>
    <trip id="91" type="passenger" depart="10.00" departLane="best" from="61720119#0" to="4704753"/>
    <trip id="92" type="passenger" depart="10.00" departLane="best" from="95512944#2" to="800130446#0"/>
    <trip id="94" type="passenger" depart="10.00" departLane="best" departSpeed="max" from="802717141" to="98711537#5"/>
    <trip id="95" type="passenger" depart="10.00" departLane="best" from="5002133#0" to="447186569"/>
    <trip id="96" type="passenger" depart="10.00" departLane="best" departSpeed="max" from="721219459#0" to="4704753"/>
    <trip id="97" type="passenger" depart="10.00" departLane="best" departSpeed="max" from="640493168#0" to="98711532#0"/>
    <trip id="0" type="rescue" depart="10.00" departLane="best" departSpeed="max" from="98711574#0" to="-94124274"/>
    <trip id="98" type="passenger" depart="10.00" departLane="best" from="627037403" to="4704753"/>
    <trip id="99" type="passenger" depart="10.00" departLane="best" from="-94124274" to="95512936#0"/>
    <trip id="100" type="passenger" depart="10.00" departLane="best" departSpeed="max" from="721219459#0" to="4704753"/>
    <trip id="101" type="passenger" depart="10.00" departLane="best" departSpeed="max" from="94124274" to="627037403"/>
    <trip id="102" type="passenger" depart="10.00" departLane="best" from="212738032#0" to="98711532#0"/>
    <trip id="103" type="passenger" depart="10.00" departLane="best" departSpeed="max" from="98711574#0" to="627037403"/>
    <trip id="104" type="passenger" depart="10.00" departLane="best" from="95512944#2" to="6277204#2"/>
    <trip id="105" type="passenger" depart="10.00" departLane="best" from="5011435#0" to="4704753"/>
    <trip id="106" type="passenger" depart="10.00" departLane="best" departSpeed="max" from="5098787#0" to="98711532#0"/>
    <trip id="107" type="passenger" depart="10.00" departLane="best" from="95512944#0" to="98711532#0"/>
    <trip id="108" type="passenger" depart="10.00" departLane="best" departSpeed="max" from="98711574#0" to="4704753"/>
    <trip id="109" type="passenger" depart="10.00" departLane="best" from="95512934#6" to="98711532#0"/>
    <trip id="111" type="passenger" depart="10.00" departLane="best" from="95512944#1" to="98711532#0"/>
    <trip id="112" type="passenger" depart="10.00" departLane="best" departSpeed="max" from="114102521#0" to="95512934#2"/>
    <trip id="113" type="passenger" depart="10.00" departLane="best" from="5098787#1" to="98711537#5"/>
    <trip id="114" type="passenger" depart="10.00" departLane="best" from="95512944#0" to="98711532#0"/>
    <trip id="115" type="passenger" depart="10.00" departLane="best" departSpeed="max" from="5073111" to="97020724#0"/>
    <trip id="116" type="passenger" depart="10.00" departLane="best" departSpeed="max" from="640493168#0" to="4721157#1"/>
    <trip id="117" type="passenger" depart="10.00" departLane="best" from="95512944#0" to="4704753"/>
    <trip id="118" type="passenger" depart="10.00" departLane="best" departSpeed="max" from="5098787#0" to="98711532#0"/>
    <trip id="119" type="passenger" depart="10.00" departLane="best" departSpeed="max" from="98711574#0" to="4704753"/>
    <trip id="120" type="passenger" depart="10.00" departLane="best" departSpeed="max" from="721219459#0" to="5073108#3"/>
    <trip id="121" type="passenger" depart="10.00" departLane="best" from="98711574#5" to="61044480"/>
    <trip id="122" type="passenger" depart="10.00" departLane="best" departSpeed="max" from="98711574#0" to="447186569"/>
    <trip id="123" type="passenger" depart="10.00" departLane="best" departSpeed="max" from="98711574#0" to="4704753"/>
    <trip id="124" type="passenger" depart="10.00" departLane="best" departSpeed="max" from="98711574#0" to="4704753"/>
    <trip id="125" type="passenger" depart="10.00" departLane="best" from="314809790#0" to="5073110#3"/>
    <trip id="126" type="passenger" depart="10.00" departLane="best" departSpeed="max" from="624442652#0" to="6277202"/>
    <trip id="127" type="passenger" depart="10.00" departLane="best" departSpeed="max" from="5098774#0" to="800130446#0"/>
    <trip id="128" type="passenger" depart="10.00" departLane="best" from="-94124274" to="98711537#5"/>
    <trip id="129" type="passenger" depart="10.00" departLane="best" departSpeed="max" from="640493168#0" to="800130446#0"/>
    <trip id="130" type="passenger" depart="10.00" departLane="best" departSpeed="max" from="5098787#0" to="98711532#0"/>
    <trip id="131" type="passenger" depart="10.00" departLane="best" departSpeed="max" from="5098787#0" to="5073109#1"/>
    <trip id="132" type="passenger" depart="10.00" departLane="best" departSpeed="max" from="624442652#0" to="4721157#1"/>
    <trip id="133" type="passenger" depart="10.00" departLane="best" from="4890108#0" to="5073110#3"/>
    <trip id="134" type="passenger" depart="10.00" departLane="best" departSpeed="max" from="98711574#0" to="707024131#0"/>
    <trip id="135" type="passenger" depart="10.00" departLane="best" departSpeed="max" from="98711574#0" to="640493168#4"/>
    <trip id="136" type="passenger" depart="10.00" departLane="best" departSpeed="max" from="5098787#0" to="627037403"/>
    <trip id="137" type="passenger" depart="10.00" departLane="best" from="721295134#0" to="5098775"/>
    <trip id="138" type="passenger" depart="10.00" departLane="best" from="6277199#2" to="4704753"/>
    <trip id="139" type="passenger" depart="10.00" departLane="best" departSpeed="max" from="640493168#0" to="98711532#0"/>
    <trip id="140" type="passenger" depart="10.00" departLane="best" from="95512944#0" to="4704753"/>
    <trip id="141" type="passenger" depart="10.00" departLane="best" from="212738032#0" to="61044480"/>
    <trip id="142" type="passenger" depart="10.00" departLane="best" departSpeed="max" from="721219459#0" to="487465952"/>
    <trip id="143" type="passenger" depart="10.00" departLane="best" from="95512944#1" to="95512935#0"/>
    <trip id="144" type="passenger" depart="10.00" departLane="best" departSpeed="max" from="802717141" to="4704753"/>
    <trip id="145" type="passenger" depart="10.00" departLane="best" departSpeed="max" from="5073109#0" to="-721219459#1"/>
    <trip id="146" type="passenger" depart="10.00" departLane="best" from="5073115#0" to="5098775"/>
    <trip id="147" type="passenger" depart="10.00" departLane="best" from="97020724#2" to="171836908"/>
    <trip id="148" type="passenger" depart="10.00" departLane="best" from="627037403" to="668856274#0"/>
    <trip id="149" type="passenger" depart="10.00" departLane="best" departSpeed="max" from="5073109#0" to="721295134#0"/>
    <trip id="150" type="passenger" depart="10.00" departLane="best" departSpeed="max" from="640493168#0" to="4704753"/>
    <trip id="151" type="passenger" depart="10.00" departLane="best" departSpeed="max" from="94124274" to="95512935#0"/>
    <trip id="152" type="passenger" depart="10.00" departLane="best" from="314809790#0" to="5073110#3"/>
    <trip id="153" type="passenger" depart="10.00" departLane="best" departSpeed="max" from="5073109#0" to="98711537#5"/>
    <trip id="154" type="passenger" depart="10.00" departLane="best" departSpeed="max" from="640493168#0" to="1061908879#0"/>
    <trip id="155" type="passenger" depart="10.00" departLane="best" from="5073115#1" to="98711532#0"/>
    <trip id="156" type="passenger" depart="10.00" departLane="best" departSpeed="max" from="640493168#0" to="95512944#1"/>
    <trip id="158" type="passenger" depart="10.00" departLane="best" from="707024131#0" to="98711537#5"/>
    <trip id="159" type="passenger" depart="10.00" departLane="best" departSpeed="max" from="98711574#0" to="640493168#3"/>
    <trip id="160" type="passenger" depart="10.00" departLane="best" departSpeed="max" from="94124274" to="52372529#0"/>
    <trip id="161" type="passenger" depart="10.00" departLane="best" departSpeed="max" from="98711574#0" to="95512935#0"/>
    <trip id="162" type="passenger" depart="10.00" departLane="best" departSpeed="max" from="640493168#0" to="4704753"/>
    <trip id="163" type="passenger" depart="10.00" departLane="best" from="5073115#1" to="668856274#2"/>
    <trip id="165" type="passenger" depart="10.00" departLane="best" departSpeed="max" from="721219459#0" to="4704753"/>
    <trip id="166" type="passenger" depart="10.00" departLane="best" departSpeed="max" from="5098774#0" to="487465952"/>
    <trip id="167" type="passenger" depart="10.00" departLane="best" departSpeed="max" from="640493168#0" to="4704753"/>
    <trip id="168" type="passenger" depart="10.00" departLane="best" departSpeed="max" from="5073111" to="721295134#0"/>
    <trip id="169" type="passenger" depart="10.00" departLane="best" from="627037403" to="4704753"/>
    <trip id="170" type="passenger" depart="10.00" departLane="best" from="627037403" to="98711532#0"/>
    <trip id="171" type="passenger" depart="10.00" departLane="best" from="668856275#0" to="721295134#0"/>
    <trip id="172" type="passenger" depart="10.00" departLane="best" from="98711537#0" to="95512935#0"/>
    <trip id="173" type="passenger" depart="10.00" departLane="best" departSpeed="max" from="624442652#0" to="-721219459#1"/>
    <trip id="174" type="passenger" depart="10.00" departLane="best" from="5136439#0" to="95512935#0"/>
    <trip id="175" type="passenger" depart="10.00" departLane="best" from="627037403" to="95512935#0"/>
    <trip id="176" type="passenger" depart="10.00" departLane="best" departSpeed="max" from="5073111" to="4704753"/>
    <trip id="177" type="passenger" depart="10.00" departLane="best" from="6277197#1" to="-94124274"/>
    <trip id="178" type="passenger" depart="10.00" departLane="best" departSpeed="max" from="624442652#0" to="4704753"/>
    <trip id="179" type="passenger" depart="10.00" departLane="best" departSpeed="max" from="640493168#0" to="4704753"/>
    <trip id="180" type="passenger" depart="10.00" departLane="best" departSpeed="max" from="721219459#0" to="-94124274"/>
    <trip id="181" type="passenger" depart="10.00" departLane="best" departSpeed="max" from="114102521#0" to="668856274#2"/>
    <trip id="182" type="passenger" depart="10.00" departLane="best" from="5011431#0" to="5098775"/>
    <trip id="183" type="passenger" depart="10.00" departLane="best" departSpeed="max" from="5073111" to="487465952"/>
    <trip id="184" type="passenger" depart="10.00" departLane="best" departSpeed="max" from="94124274" to="5073108#0"/>
    <trip id="185" type="passenger" depart="10.00" departLane="best" departSpeed="max" from="94124274" to="98711532#0"/>
    <trip id="186" type="passenger" depart="10.00" departLane="best" from="5073115#2" to="19873394#0"/>
    <trip id="187" type="passenger" depart="10.00" departLane="best" from="-97020724#3" to="61044480"/>
    <trip id="188" type="passenger" depart="10.00" departLane="best" from="99093093#3" to="5002133#0"/>
    <trip id="189" type="passenger" depart="10.00" departLane="best" from="721295134#0" to="95512935#0"/>
    <trip id="190" type="passenger" depart="10.00" departLane="best" departSpeed="max" from="98711574#0" to="4704753"/>
    <trip id="192" type="passenger" depart="10.00" departLane="best" departSpeed="max" from="94124274" to="95512935#0"/>
    <trip id="193" type="passenger" depart="10.00" departLane="best" from="5073108#0" to="640493168#3"/>
    <trip id="194" type="passenger" depart="10.00" departLane="best" departSpeed="max" from="94124274" to="314809790#0"/>
    <trip id="195" type="passenger" depart="10.00" departLane="best" from="95512944#1" to="98711537#5"/>
    <trip id="196" type="passenger" depart="10.00" departLane="best" departSpeed="max" from="5098787#0" to="707024131#0"/>
    <trip id="197" type="passenger" depart="10.00" departLane="best" departSpeed="max" from="98711574#0" to="5073108#3"/>
    <trip id="198" type="passenger" depart="10.00" departLane="best" departSpeed="max" from="94124274" to="171836910#0"/>
    <trip id="199" type="passenger" depart="10.00" departLane="best" departSpeed="max" from="802717141" to="658610291#0"/>
    <trip id="200" type="passenger" depart="10.00" departLane="best" from="314809790#0" to="95512936#0"/>
    <trip id="201" type="passenger" depart="200.91" departLane="best" from="97020724#2" to="6277204#2"/>
    <trip id="202" type="passenger" depart="201.91" departLane="best" from="4823221#0" to="98711539"/>
    <trip id="203" type="passenger" depart="202.91" departLane="best" from="95512934#6" to="4890108#0"/>
    <trip id="204" type="passenger" depart="203.91" departLane="best" from="6277186#1" to="5011437#0"/>
    <trip id="205" type="passenger" depart="204.91" departLane="best" departSpeed="max" from="640493168#0" to="4890108#0"/>
    <trip id="206" type="passenger" depart="205.91" departLane="best" from="314809790#0" to="98711537#5"/>
    <trip id="207" type="passenger" depart="206.91" departLane="best" departSpeed="max" from="721219459#0" to="98711532#0"/>
    <trip id="208" type="passenger" depart="207.91" departLane="best" departSpeed="max" from="94124274" to="5073110#3"/>
    <trip id="209" type="passenger" depart="208.91" departLane="best" departSpeed="max" from="94124274" to="98711537#5"/>
    <trip id="210" type="passenger" depart="209.91" departLane="best" departSpeed="max" from="5098774#0" to="95512944#2"/>
    <trip id="211" type="passenger" depart="210.91" departLane="best" departSpeed="max" from="640493168#0" to="5098787#1"/>
    <trip id="212" type="passenger" depart="211.91" departLane="best" from="6277197#1" to="94131901#0"/>
    <trip id="213" type="passenger" depart="212.91" departLane="best" departSpeed="max" from="5098774#0" to="98711532#0"/>
    <trip id="214" type="passenger" depart="213.91" departLane="best" departSpeed="max" from="98711574#0" to="4704753"/>
    <trip id="215" type="passenger" depart="214.91" departLane="best" departSpeed="max" from="624442652#0" to="-94124274"/>
    <trip id="216" type="passenger" depart="215.91" departLane="best" departSpeed="max" from="5073111" to="95512944#1"/>
    <trip id="217" type="passenger" depart="216.91" departLane="best" from="5136425" to="98711532#0"/>
    <trip id="218" type="passenger" depart="217.91" departLane="best" from="-97020724#1" to="98711537#5"/>
    <trip id="219" type="passenger" depart="218.91" departLane="best" from="314809790#0" to="800130446#0"/>
    <trip id="220" type="passenger" depart="219.91" departLane="best" departSpeed="max" from="640493168#0" to="95512935#0"/>
    <trip id="221" type="passenger" depart="220.91" departLane="best" departSpeed="max" from="802717141" to="668856274#2"/>
    <trip id="222" type="passenger" depart="221.91" departLane="best" departSpeed="max" from="640493168#0" to="95512944#1"/>
    <trip id="223" type="passenger" depart="222.91" departLane="best" from="314809790#0" to="4704753"/>
    <trip id="224" type="passenger" depart="223.90" departLane="best" departSpeed="max" from="802717141" to="4721157#1"/>
    <trip id="225" type="passenger" depart="224.90" departLane="best" from="668856274#1" to="5098775"/>
    <trip id="226" type="passenger" depart="225.90" departLane="best" departSpeed="max" from="640493168#0" to="5073110#3"/>
    <trip id="227" type="passenger" depart="226.90" departLane="best" departSpeed="max" from="5073109#0" to="447186569"/>
    <trip id="228" type="passenger" depart="227.90" departLane="best" departSpeed="max" from="640493168#0" to="95512935#0"/>
    <trip id="229" type="passenger" depart="228.90" departLane="best" departSpeed="max" from="5073109#0" to="4704753"/>
    <trip id="230" type="passenger" depart="229.90" departLane="best" departSpeed="max" from="640493168#0" to="800130446#0"/>
    <trip id="231" type="passenger" depart="230.90" departLane="best" departSpeed="max" from="98711574#0" to="61044480"/>
    <trip id="232" type="passenger" depart="231.90" departLane="best" departSpeed="max" from="5098774#0" to="314809790#0"/>
    <trip id="233" type="passenger" depart="232.90" departLane="best" departSpeed="max" from="5073109#0" to="4704753"/>
    <trip id="234" type="passenger" depart="233.90" departLane="best" departSpeed="max" from="5073109#0" to="-721219459#1"/>
    <trip id="235" type="passenger" depart="234.90" departLane="best" departSpeed="max" from="640493168#0" to="4704753"/>
    <trip id="236" type="passenger" depart="235.90" departLane="best" departSpeed="max" from="98711574#0" to="627037403"/>
    <trip id="237" type="passenger" depart="236.90" departLane="best" from="98711537#4" to="5136425"/>
    <trip id="239" type="passenger" depart="238.90" departLane="best" departSpeed="max" from="5073109#0" to="1061908879#0"/>
    <trip id="240" type="passenger" depart="239.90" departLane="best" departSpeed="max" from="98711574#0" to="5098777#0"/>
    <trip id="241" type="passenger" depart="240.90" departLane="best" from="95512944#1" to="5073108#3"/>
    <trip id="242" type="passenger" depart="241.90" departLane="best" from="212738032#0" to="668856274#0"/>
    <trip id="244" type="passenger" depart="243.90" departLane="best" from="99093093#0" to="447186569"/>
    <trip id="246" type="passenger" depart="245.90" departLane="best" from="95512944#0" to="4704753"/>
    <trip id="247" type="passenger" depart="246.89" departLane="best" departSpeed="max" from="640493168#0" to="5098775"/>
    <trip id="248" type="passenger" depart="247.89" departLane="best" from="98711574#5" to="4721157#1"/>
    <trip id="249" type="passenger" depart="248.89" departLane="best" departSpeed="max" from="721219459#0" to="640493168#3"/>
    <trip id="250" type="passenger" depart="249.89" departLane="best" departSpeed="max" from="94124274" to="98711537#5"/>
    <trip id="251" type="passenger" depart="250.89" departLane="best" from="721295134#0" to="4704753"/>
    <trip id="252" type="passenger" depart="251.89" departLane="best" departSpeed="max" from="5073109#0" to="171836910#0"/>
    <trip id="253" type="passenger" depart="252.89" departLane="best" from="-94124274" to="5098775"/>
    <trip id="254" type="passenger" depart="253.89" departLane="best" departSpeed="max" from="5073111" to="800130446#0"/>
    <trip id="255" type="passenger" depart="254.89" departLane="best" departSpeed="max" from="94124274" to="5098775"/>
    <trip id="256" type="passenger" depart="255.89" departLane="best" departSpeed="max" from="802717141" to="98711537#5"/>
    <trip id="258" type="passenger" depart="257.89" departLane="best" from="721295134#0" to="98711537#5"/>
    <trip id="259" type="passenger" depart="258.89" departLane="best" from="6277186#0" to="624442661#0"/>
    <trip id="260" type="passenger" depart="259.89" departLane="best" from="721295134#0" to="98711537#0"/>
    <trip id="261" type="passenger" depart="260.89" departLane="best" from="5011437#0" to="4721157#1"/>
    <trip id="262" type="passenger" depart="261.89" departLane="best" departSpeed="max" from="94124274" to="6277197#1"/>
    <trip id="263" type="passenger" depart="262.89" departLane="best" from="5098774#2" to="4704753"/>
    <trip id="264" type="passenger" depart="263.89" departLane="best" departSpeed="max" from="98711574#0" to="52348249"/>
    <trip id="265" type="passenger" depart="264.89" departLane="best" departSpeed="max" from="5098787#0" to="4704753"/>
    <trip id="266" type="passenger" depart="265.89" departLane="best" from="314809790#0" to="98711537#5"/>
    <trip id="267" type="passenger" depart="266.89" departLane="best" from="95512944#2" to="6277202"/>