<?xml version="1.0" encoding="UTF-8"?>

<!-- generated on 2022-06-22 15:54:31 by Eclipse SUMO duarouter Version 1.13.0
<configuration xmlns:xsi="http://www.w3.org/2001/XMLSchema-instance" xsi:noNamespaceSchemaLocation="http://sumo.dlr.de/xsd/duarouterConfiguration.xsd">

    <input>
        <net-file value="/home/mickael/Sumo/2022-06-22-15-54-25/osm.net.xml"/>
        <route-files value="/home/mickael/Sumo/2022-06-22-15-54-25/osm.bicycle.trips.xml"/>
    </input>

    <output>
        <output-file value="/home/mickael/Sumo/2022-06-22-15-54-25/osm.bicycle.trips.xml.tmp"/>
        <write-trips value="true"/>
    </output>

    <time>
        <begin value="0"/>
        <end value="3600"/>
    </time>

    <report>
        <no-warnings value="true"/>
        <ignore-errors value="true"/>
        <no-step-log value="true"/>
    </report>

</configuration>
-->

<routes xmlns:xsi="http://www.w3.org/2001/XMLSchema-instance" xsi:noNamespaceSchemaLocation="http://sumo.dlr.de/xsd/routes_file.xsd">
    <vType id="bike_bicycle" vClass="bicycle"/>
    <trip id="bike0" type="bike_bicycle" depart="0.00" departLane="best" from="648541876#0" to="-721219459#1"/>
    <trip id="bike1" type="bike_bicycle" depart="3.12" departLane="best" from="4721158#0" to="41998660#0"/>
    <trip id="bike2" type="bike_bicycle" depart="6.23" departLane="best" from="7970449#2" to="669328123#2"/>
    <trip id="bike3" type="bike_bicycle" depart="9.35" departLane="best" departSpeed="max" from="9281420#0" to="16360341"/>
    <trip id="bike4" type="bike_bicycle" depart="12.47" departLane="best" departSpeed="max" from="497484170" to="-94124274#1"/>
    <trip id="bike5" type="bike_bicycle" depart="15.59" departLane="best" from="447271371#3" to="52092244"/>
    <trip id="bike6" type="bike_bicycle" depart="18.70" departLane="best" from="-94124274#1" to="372352253"/>
    <trip id="bike7" type="bike_bicycle" depart="21.82" departLane="best" from="668856274#2" to="52394714#6"/>
    <trip id="bike8" type="bike_bicycle" depart="24.94" departLane="best" from="447271371#3" to="624442661#0"/>
    <trip id="bike9" type="bike_bicycle" depart="28.06" departLane="best" from="8102600#0" to="-4890120#1"/>
    <trip id="bike10" type="bike_bicycle" depart="31.17" departLane="best" from="8102596#1" to="7666163#3"/>
    <trip id="bike11" type="bike_bicycle" depart="34.29" departLane="best" from="4823219#0" to="217941242"/>
    <trip id="bike12" type="bike_bicycle" depart="37.41" departLane="best" from="98711532#8" to="4808250#4"/>
    <trip id="bike13" type="bike_bicycle" depart="40.53" departLane="best" from="171836910#0" to="171836910#0"/>
    <trip id="bike14" type="bike_bicycle" depart="43.64" departLane="best" from="8102636#3" to="6277192#1"/>
    <trip id="bike15" type="bike_bicycle" depart="46.76" departLane="best" from="8102599#0" to="770904164"/>
    <trip id="bike18" type="bike_bicycle" depart="56.11" departLane="best" from="8102627#0" to="6277199#2"/>
    <trip id="bike19" type="bike_bicycle" depart="59.23" departLane="best" from="821786649#0" to="61720119#0"/>
    <trip id="bike20" type="bike_bicycle" depart="62.35" departLane="best" from="7666194" to="10305562#0"/>
    <trip id="bike21" type="bike_bicycle" depart="65.46" departLane="best" from="447710246" to="4704763#10"/>
    <trip id="bike22" type="bike_bicycle" depart="68.58" departLane="best" from="13470139" to="440053128"/>
    <trip id="bike23" type="bike_bicycle" depart="71.70" departLane="best" from="191144571" to="4704759#0"/>
    <trip id="bike24" type="bike_bicycle" depart="74.82" departLane="best" departSpeed="max" from="640319786" to="4823218#0"/>
    <trip id="bike26" type="bike_bicycle" depart="81.05" departLane="best" from="4704763#5" to="97020724#0"/>
    <trip id="bike27" type="bike_bicycle" depart="84.17" departLane="best" from="668856274#1" to="6277194#3"/>
    <trip id="bike28" type="bike_bicycle" depart="87.29" departLane="best" from="37034412#4" to="770904163#0"/>
    <trip id="bike30" type="bike_bicycle" depart="93.52" departLane="best" from="9874866#4" to="6277226#0"/>
    <trip id="bike32" type="bike_bicycle" depart="99.75" departLane="best" departSpeed="max" from="8102636#0" to="803049231#0"/>
    <trip id="bike33" type="bike_bicycle" depart="102.87" departLane="best" from="447710246" to="-965741022"/>
    <trip id="bike35" type="bike_bicycle" depart="109.11" departLane="best" departSpeed="max" from="447171439#0" to="98711532#3"/>
    <trip id="bike36" type="bike_bicycle" depart="112.22" departLane="best" departSpeed="max" from="831769963#0" to="4758624#0"/>
    <trip id="bike37" type="bike_bicycle" depart="115.34" departLane="best" from="668856275#0" to="4890116#1"/>
    <trip id="bike38" type="bike_bicycle" depart="118.46" departLane="best" from="94131903#0" to="5073108#0"/>
    <trip id="bike41" type="bike_bicycle" depart="127.81" departLane="best" from="627037403" to="94124274#0"/>
    <trip id="bike43" type="bike_bicycle" depart="134.05" departLane="best" from="99093093#0" to="52348254#2"/>
    <trip id="bike44" type="bike_bicycle" depart="137.16" departLane="best" from="171836908" to="1061908879#0"/>
    <trip id="bike45" type="bike_bicycle" depart="140.28" departLane="best" from="19873386#0" to="6277204#2"/>
    <trip id="bike46" type="bike_bicycle" depart="143.40" departLane="best" from="8099702#0" to="4890124#0"/>
    <trip id="bike47" type="bike_bicycle" depart="146.51" departLane="best" from="114102529#3" to="488770040#0"/>
    <trip id="bike48" type="bike_bicycle" depart="149.63" departLane="best" from="99093093#0" to="52372532#0"/>
    <trip id="bike49" type="bike_bicycle" depart="152.75" departLane="best" from="98711574#1" to="812989773#0"/>
    <trip id="bike50" type="bike_bicycle" depart="155.87" departLane="best" from="-5098790#4" to="7666193#0"/>
    <trip id="bike52" type="bike_bicycle" depart="162.10" departLane="best" from="4704763#5" to="6277226#3"/>
    <trip id="bike53" type="bike_bicycle" depart="165.22" departLane="best" from="19873388#0" to="4890126#2"/>
    <trip id="bike54" type="bike_bicycle" depart="168.34" departLane="best" departSpeed="max" from="5098774#0" to="98711534#4"/>
    <trip id="bike55" type="bike_bicycle" depart="171.45" departLane="best" departSpeed="max" from="831769963#0" to="463089659#0"/>
    <trip id="bike57" type="bike_bicycle" depart="177.69" departLane="best" from="94131901#0" to="823356688#2"/>
    <trip id="bike59" type="bike_bicycle" depart="183.92" departLane="best" departSpeed="max" from="6277202" to="213141909#0"/>
    <trip id="bike61" type="bike_bicycle" depart="190.16" departLane="best" from="8099700#12" to="52372535#0"/>
    <trip id="bike62" type="bike_bicycle" depart="193.27" departLane="best" from="-191144570#1" to="4795046#4"/>
    <trip id="bike63" type="bike_bicycle" depart="196.39" departLane="best" from="-662466776" to="95512944#1"/>
    <trip id="bike64" type="bike_bicycle" depart="199.51" departLane="best" from="831769963#1" to="8102613#0"/>
    <trip id="bike66" type="bike_bicycle" depart="205.74" departLane="best" from="831769963#1" to="98711532#8"/>
    <trip id="bike68" type="bike_bicycle" depart="211.98" departLane="best" from="114102536#0" to="7970452#1"/>
    <trip id="bike70" type="bike_bicycle" depart="218.21" departLane="best" from="5136439#0" to="540430601#1"/>
    <trip id="bike71" type="bike_bicycle" depart="221.33" departLane="best" from="4704763#5" to="829325367"/>
    <trip id="bike72" type="bike_bicycle" depart="224.45" departLane="best" departSpeed="max" from="497484170" to="413954433#0"/>
    <trip id="bike73" type="bike_bicycle" depart="227.57" departLane="best" from="60432357#0" to="770904164"/>
    <trip id="bike75" type="bike_bicycle" depart="233.80" departLane="best" from="99093074#0" to="648541876#0"/>
    <trip id="bike76" type="bike_bicycle" depart="236.92" departLane="best" from="5011431#0" to="52361586"/>
    <trip id="bike77" type="bike_bicycle" depart="240.03" departLane="best" departSpeed="max" from="211248470#0" to="41998660#1"/>
    <trip id="bike78" type="bike_bicycle" depart="243.15" departLane="best" from="4823218#4" to="624442661#0"/>
    <trip id="bike79" type="bike_bicycle" depart="246.27" departLane="best" from="447710247#0" to="41397537#1"/>
    <trip id="bike80" type="bike_bicycle" depart="249.39" departLane="best" from="114102536#0" to="6277214#2"/>
    <trip id="bike81" type="bike_bicycle" depart="252.50" departLane="best" from="447710246" to="94131898#0"/>
    <trip id="bike82" type="bike_bicycle" depart="255.62" departLane="best" from="814346219" to="11993601#0"/>
    <trip id="bike83" type="bike_bicycle" depart="258.74" departLane="best" from="463089659#0" to="668856274#5"/>
    <trip id="bike85" type="bike_bicycle" depart="264.97" departLane="best" from="95512944#2" to="61044525#0"/>
    <trip id="bike87" type="bike_bicycle" depart="271.21" departLane="best" from="8102599#0" to="37034412#0"/>
    <trip id="bike89" type="bike_bicycle" depart="277.44" departLane="best" departSpeed="max" from="497484170" to="5098774#1"/>
    <trip id="bike90" type="bike_bicycle" depart="280.56" departLane="best" from="7970445#0" to="669328123#0"/>
    <trip id="bike91" type="bike_bicycle" depart="283.68" departLane="best" from="98711574#6" to="187017776#0"/>
    <trip id="bike92" type="bike_bicycle" depart="286.79" departLane="best" from="4890122#3" to="4808254#5"/>
    <trip id="bike93" type="bike_bicycle" depart="289.91" departLane="best" from="821786649#0" to="447710246"/>
    <trip id="bike95" type="bike_bicycle" depart="296.15" departLane="best" departSpeed="max" from="497484170" to="4704759#0"/>
    <trip id="bike96" type="bike_bicycle" depart="299.26" departLane="best" from="4704753" to="95512937#1"/>
    <trip id="bike97" type="bike_bicycle" depart="302.38" departLane="best" from="5011435#0" to="812989773#0"/>
    <trip id="bike99" type="bike_bicycle" depart="308.62" departLane="best" from="99093093#3" to="8102615#0"/>
    <trip id="bike100" type="bike_bicycle" depart="311.73" departLane="best" from="98711574#0" to="95512937#2"/>
    <trip id="bike101" type="bike_bicycle" depart="314.85" departLane="best" from="810730425#0" to="314809207#0"/>
    <trip id="bike102" type="bike_bicycle" depart="317.97" departLane="best" from="52348254#0" to="41397536"/>
    <trip id="bike105" type="bike_bicycle" depart="327.32" departLane="best" from="4704763#5" to="8049797#0"/>
    <trip id="bike106" type="bike_bicycle" depart="330.44" departLane="best" from="5098774#1" to="4890124#0"/>
    <trip id="bike107" type="bike_bicycle" depart="333.55" departLane="best" from="98711532#8" to="99093074#0"/>
    <trip id="bike108" type="bike_bicycle" depart="336.67" departLane="best" from="61044484" to="7666191#0"/>
    <trip id="bike109" type="bike_bicycle" depart="339.79" departLane="best" from="314809790#0" to="4721157#3"/>
    <trip id="bike110" type="bike_bicycle" depart="342.91" departLane="best" from="98711572" to="61722208#0"/>
    <trip id="bike112" type="bike_bicycle" depart="349.14" departLane="best" departSpeed="max" from="114102521#0" to="624442652#0"/>
    <trip id="bike113" type="bike_bicycle" depart="352.26" departLane="best" departSpeed="max" from="52361597#0" to="8102634#0"/>
    <trip id="bike114" type="bike_bicycle" depart="355.38" departLane="best" departSpeed="max" from="319005196#0" to="98711556"/>
    <trip id="bike115" type="bike_bicycle" depart="358.49" departLane="best" from="13470139" to="319005198"/>
    <trip id="bike116" type="bike_bicycle" depart="361.61" departLane="best" from="6277194#0" to="669328123#2"/>
    <trip id="bike119" type="bike_bicycle" depart="370.96" departLane="best" from="6277192#1" to="6277199#2"/>
    <trip id="bike121" type="bike_bicycle" depart="377.20" departLane="best" departSpeed="max" from="52394714#0" to="965741022"/>
    <trip id="bike122" type="bike_bicycle" depart="380.31" departLane="best" departSpeed="max" from="447171420#0" to="7666190#1"/>
    <trip id="bike123" type="bike_bicycle" depart="383.43" departLane="best" from="463089661" to="4890116#1"/>
    <trip id="bike124" type="bike_bicycle" depart="386.55" departLane="best" from="721295134#0" to="4721158#0"/>
    <trip id="bike127" type="bike_bicycle" depart="395.90" departLane="best" from="99093093#3" to="99093093#0"/>
    <trip id="bike129" type="bike_bicycle" depart="402.14" departLane="best" from="4704763#5" to="95512944#2"/>
    <trip id="bike130" type="bike_bicycle" depart="405.25" departLane="best" from="833815194#0" to="831769963#1"/>
    <trip id="bike133" type="bike_bicycle" depart="414.61" departLane="best" from="6277204#0" to="9874866#3"/>
    <trip id="bike135" type="bike_bicycle" depart="420.84" departLane="best" from="8102610" to="4721158#0"/>
    <trip id="bike136" type="bike_bicycle" depart="423.96" departLane="best" from="707024131#0" to="97020724#2"/>
    <trip id="bike138" type="bike_bicycle" depart="430.19" departLane="best" from="19873385#0" to="608162931"/>
    <trip id="bike139" type="bike_bicycle" depart="433.31" departLane="best" from="4721157#7" to="6277192#1"/>
    <trip id="bike142" type="bike_bicycle" depart="442.66" departLane="best" from="52348254#2" to="94131898#0"/>
    <trip id="bike143" type="bike_bicycle" depart="445.78" departLane="best" from="8102636#2" to="16360344"/>
    <trip id="bike144" type="bike_bicycle" depart="448.90" departLane="best" departSpeed="max" from="497484170" to="4704753"/>
    <trip id="bike146" type="bike_bicycle" depart="455.13" departLane="best" departSpeed="max" from="640319786" to="463089659#0"/>
    <trip id="bike147" type="bike_bicycle" depart="458.25" departLane="best" from="7970452#0" to="60432357#0"/>
    <trip id="bike148" type="bike_bicycle" depart="461.37" departLane="best" from="5002133#0" to="-497484170"/>
    <trip id="bike149" type="bike_bicycle" depart="464.48" departLane="best" from="13470130#0" to="8811243"/>
    <trip id="bike151" type="bike_bicycle" depart="470.72" departLane="best" from="8102632#0" to="61722208#1"/>
    <trip id="bike152" type="bike_bicycle" depart="473.83" departLane="best" from="314808382" to="19873386#0"/>
    <trip id="bike154" type="bike_bicycle" depart="480.07" departLane="best" from="8099705#3" to="812989773#0"/>
    <trip id="bike155" type="bike_bicycle" depart="483.19" departLane="best" from="9286413" to="41197572#0"/>
    <trip id="bike156" type="bike_bicycle" depart="486.30" departLane="best" from="4704753" to="191144570#0"/>
    <trip id="bike159" type="bike_bicycle" depart="495.66" departLane="best" from="314809790#0" to="95512944#1"/>
    <trip id="bike160" type="bike_bicycle" depart="498.77" departLane="best" from="823356688#2" to="98711574#12"/>
    <trip id="bike161" type="bike_bicycle" depart="501.89" departLane="best" from="8102600#2" to="833815194#0"/>
    <trip id="bike162" type="bike_bicycle" depart="505.01" departLane="best" from="-94124274#1" to="7724658#0"/>
    <trip id="bike163" type="bike_bicycle" depart="508.13" departLane="best" from="4823216#0" to="95512944#1"/>
    <trip id="bike164" type="bike_bicycle" depart="511.24" departLane="best" from="8102596#0" to="814346219"/>
    <trip id="bike166" type="bike_bicycle" depart="517.48" departLane="best" from="8099701#0" to="191617371#0"/>
    <trip id="bike167" type="bike_bicycle" depart="520.59" departLane="best" from="831769936#1" to="810730425#0"/>
    <trip id="bike168" type="bike_bicycle" depart="523.71" departLane="best" from="447271371#6" to="8102596#0"/>
    <trip id="bike169" type="bike_bicycle" depart="526.83" departLane="best" from="5098787#0" to="4721161#0"/>
    <trip id="bike170" type="bike_bicycle" depart="529.95" departLane="best" from="8099705#3" to="42164115#0"/>
    <trip id="bike171" type="bike_bicycle" depart="533.06" departLane="best" from="-8811243" to="37064503#0"/>
    <trip id="bike172" type="bike_bicycle" depart="536.18" departLane="best" from="4823212#2" to="814346219"/>
    <trip id="bike173" type="bike_bicycle" depart="539.30" departLane="best" from="98711572" to="4704759#0"/>
    <trip id="bike174" type="bike_bicycle" depart="542.42" departLane="best" from="658610291#0" to="4890119#1"/>
    <trip id="bike176" type="bike_bicycle" depart="548.65" departLane="best" from="965741022" to="191715080#0"/>
    <trip id="bike179" type="bike_bicycle" depart="558.00" departLane="best" from="19873385#0" to="4890126#0"/>
    <trip id="bike180" type="bike_bicycle" depart="561.12" departLane="best" from="7970445#0" to="4758624#0"/>
    <trip id="bike181" type="bike_bicycle" depart="564.24" departLane="best" departSpeed="max" from="6277202" to="52348255#0"/>
    <trip id="bike184" type="bike_bicycle" depart="573.59" departLane="best" from="-191144570#1" to="95512937#2"/>
    <trip id="bike188" type="bike_bicycle" depart="586.06" departLane="best" from="708302796" to="4806363#0"/>
    <trip id="bike190" type="bike_bicycle" depart="592.29" departLane="best" from="7724665#0" to="4721158#0"/>
    <trip id="bike191" type="bike_bicycle" depart="595.41" departLane="best" from="4808250#1" to="4890121#1"/>
    <trip id="bike193" type="bike_bicycle" depart="601.65" departLane="best" from="211284496#0" to="4890123#0"/>
    <trip id="bike194" type="bike_bicycle" depart="604.76" departLane="best" from="97020724#0" to="669328123#2"/>
    <trip id="bike195" type="bike_bicycle" depart="607.88" departLane="best" from="94124278" to="6277199#0"/>
    <trip id="bike196" type="bike_bicycle" depart="611.00" departLane="best" from="4795048#0" to="540430601#1"/>
    <trip id="bike197" type="bike_bicycle" depart="614.11" departLane="best" from="-191144570#1" to="4704763#0"/>
    <trip id="bike198" type="bike_bicycle" depart="617.23" departLane="best" from="5002138#0" to="61722208#0"/>
    <trip id="bike200" type="bike_bicycle" depart="623.47" departLane="best" from="5011435#0" to="41397536"/>
    <trip id="bike202" type="bike_bicycle" depart="629.70" departLane="best" from="8099705#3" to="314809207#1"/>
    <trip id="bike204" type="bike_bicycle" depart="635.94" departLane="best" from="6277233" to="4808250#4"/>
    <trip id="bike205" type="bike_bicycle" depart="639.05" departLane="best" from="8102613#0" to="7970445#1"/>
    <trip id="bike208" type="bike_bicycle" depart="648.41" departLane="best" from="463089663#0" to="5098787#0"/>
    <trip id="bike211" type="bike_bicycle" depart="657.76" departLane="best" from="41998660#1" to="7666163#3"/>
    <trip id="bike212" type="bike_bicycle" depart="660.87" departLane="best" from="52348256#0" to="447271375"/>
    <trip id="bike213" type="bike_bicycle" depart="663.99" departLane="best" from="668856275#0" to="-4890120#1"/>
    <trip id="bike214" type="bike_bicycle" depart="667.11" departLane="best" from="800130446#0" to="800130446#0"/>
    <trip id="bike215" type="bike_bicycle" depart="670.23" departLane="best" from="191715084" to="4890124#2"/>
    <trip id="bike218" type="bike_bicycle" depart="679.58" departLane="best" from="463089664" to="8102632#0"/>
    <trip id="bike219" type="bike_bicycle" depart="682.70" departLane="best" from="5098774#1" to="8099701#0"/>
    <trip id="bike220" type="bike_bicycle" depart="685.81" departLane="best" departSpeed="max" from="721219459#0" to="9874866#3"/>
    <trip id="bike221" type="bike_bicycle" depart="688.93" departLane="best" from="6277194#0" to="98711534#0"/>
    <trip id="bike222" type="bike_bicycle" depart="692.05" departLane="best" departSpeed="max" from="9281420#0" to="6277197#2"/>
    <trip id="bike223" type="bike_bicycle" depart="695.17" departLane="best" from="7724658#0" to="52092244"/>
    <trip id="bike224" type="bike_bicycle" depart="698.28" departLane="best" from="8102627#0" to="540430601#1"/>
    <trip id="bike225" type="bike_bicycle" depart="701.40" departLane="best" departSpeed="max" from="9286410#0" to="7724671"/>
    <trip id="bike227" type="bike_bicycle" depart="707.63" departLane="best" from="463089664" to="6277224#0"/>
    <trip id="bike229" type="bike_bicycle" depart="713.87" departLane="best" from="6277226#3" to="463089664"/>
    <trip id="bike231" type="bike_bicycle" depart="720.10" departLane="best" from="4721157#7" to="4795045#0"/>
    <trip id="bike232" type="bike_bicycle" depart="723.22" departLane="best" from="60432357#0" to="20855254#0"/>
    <trip id="bike233" type="bike_bicycle" depart="726.34" departLane="best" from="447710247#0" to="727519155"/>
    <trip id="bike238" type="bike_bicycle" depart="741.93" departLane="best" from="627037403" to="7666163#0"/>
    <trip id="bike239" type="bike_bicycle" depart="745.04" departLane="best" from="812989773#0" to="7994904"/>
    <trip id="bike240" type="bike_bicycle" depart="748.16" departLane="best" from="4890120#0" to="-4890120#1"/>
    <trip id="bike241" type="bike_bicycle" depart="751.28" departLane="best" from="487465952" to="7970449#0"/>
    <trip id="bike242" type="bike_bicycle" depart="754.39" departLane="best" departSpeed="max" from="810730426#0" to="98711534#1"/>
    <trip id="bike244" type="bike_bicycle" depart="760.63" departLane="best" from="61044481#0" to="6277192#1"/>
    <trip id="bike245" type="bike_bicycle" depart="763.75" departLane="best" from="447271371#6" to="41397537#1"/>
    <trip id="bike246" type="bike_bicycle" depart="766.86" departLane="best" from="5011424#0" to="-94124274#1"/>
    <trip id="bike247" type="bike_bicycle" depart="769.98" departLane="best" from="4823218#0" to="707024130#0"/>
    <trip id="bike249" type="bike_bicycle" depart="776.22" departLane="best" from="5136421#0" to="19873386#0"/>
    <trip id="bike250" type="bike_bicycle" depart="779.33" departLane="best" from="6277224#0" to="-8811243"/>
    <trip id="bike252" type="bike_bicycle" depart="785.57" departLane="best" from="-965741022" to="6277226#3"/>
    <trip id="bike255" type="bike_bicycle" depart="794.92" departLane="best" departSpeed="max" from="447171439#0" to="4795048#0"/>
    <trip id="bike257" type="bike_bicycle" depart="801.15" departLane="best" from="800130446#0" to="8102613#0"/>
    <trip id="bike258" type="bike_bicycle" depart="804.27" departLane="best" from="4704759#0" to="154012610#0"/>
    <trip id="bike261" type="bike_bicycle" depart="813.62" departLane="best" from="668856274#2" to="8049796#0"/>
    <trip id="bike262" type="bike_bicycle" depart="816.74" departLane="best" from="668856274#3" to="7970449#2"/>
    <trip id="bike263" type="bike_bicycle" depart="819.86" departLane="best" departSpeed="max" from="98711532#0" to="372352253"/>
    <trip id="bike264" type="bike_bicycle" depart="822.98" departLane="best" from="-707024129" to="213141909#0"/>
    <trip id="bike265" type="bike_bicycle" depart="826.09" departLane="best" from="211248470#1" to="668856274#5"/>
    <trip id="bike267" type="bike_bicycle" depart="832.33" departLane="best" from="7666191#0" to="7994904"/>
    <trip id="bike268" type="bike_bicycle" depart="835.45" departLane="best" from="37034412#0" to="6277194#0"/>
    <trip id="bike270" type="bike_bicycle" depart="841.68" departLane="best" from="8102613#0" to="98711574#0"/>
    <trip id="bike271" type="bike_bicycle" depart="844.80" departLane="best" from="19873385#0" to="-721219459#1"/>
    <trip id="bike272" type="bike_bicycle" depart="847.91" departLane="best" from="4808254#0" to="669328123#2"/>
    <trip id="bike273" type="bike_bicycle" depart="851.03" departLane="best" from="98711534#0" to="4890116#1"/>
    <trip id="bike274" type="bike_bicycle" depart="854.15" departLane="best" from="770904172" to="13470132"/>
    <trip id="bike275" type="bike_bicycle" depart="857.27" departLane="best" from="7666175#4" to="6277204#2"/>
    <trip id="bike276" type="bike_bicycle" depart="860.38" departLane="best" from="191144571" to="800130448#0"/>
    <trip id="bike277" type="bike_bicycle" depart="863.50" departLane="best" from="810730425#0" to="6277186#1"/>
    <trip id="bike278" type="bike_bicycle" depart="866.62" departLane="best" departSpeed="max" from="211248470#0" to="98711574#6"/>
    <trip id="bike280" type="bike_bicycle" depart="872.85" departLane="best" from="5002133#0" to="4823220#0"/>
    <trip id="bike281" type="bike_bicycle" depart="875.97" departLane="best" from="52361597#3" to="4808254#5"/>
    <trip id="bike282" type="bike_bicycle" depart="879.09" departLane="best" from="810730425#0" to="8102599#0"/>
    <trip id="bike283" type="bike_bicycle" depart="882.21" departLane="best" from="191715084" to="98711556"/>
    <trip id="bike284" type="bike_bicycle" depart="885.32" departLane="best" departSpeed="max" from="640319786" to="810260232#0"/>
    <trip id="bike285" type="bike_bicycle" depart="888.44" departLane="best" from="7666196#0" to="4890126#2"/>
    <trip id="bike286" type="bike_bicycle" depart="891.56" departLane="best" from="7970449#0" to="98711574#0"/>
    <trip id="bike289" type="bike_bicycle" depart="900.91" departLane="best" from="5011424#0" to="770904164"/>
    <trip id="bike290" type="bike_bicycle" depart="904.03" departLane="best" from="4721157#0" to="8102634#0"/>
    <trip id="bike291" type="bike_bicycle" depart="907.14" departLane="best" from="8102627#0" to="16360341"/>
    <trip id="bike292" type="bike_bicycle" depart="910.26" departLane="best" from="833815194#0" to="447271371#6"/>
    <trip id="bike293" type="bike_bicycle" depart="913.38" departLane="best" from="5098790#1" to="6277197#0"/>
    <trip id="bike296" type="bike_bicycle" depart="922.73" departLane="best" departSpeed="max" from="447171439#0" to="8099700#3"/>
    <trip id="bike297" type="bike_bicycle" depart="925.85" departLane="best" from="4823219#0" to="833815194#0"/>
    <trip id="bike298" type="bike_bicycle" depart="928.97" departLane="best" from="7666191#0" to="4704753"/>
    <trip id="bike301" type="bike_bicycle" depart="938.32" departLane="best" from="52348254#2" to="7970451#0"/>
    <trip id="bike302" type="bike_bicycle" depart="941.43" departLane="best" from="7666175#4" to="6277231#0"/>
    <trip id="bike303" type="bike_bicycle" depart="944.55" departLane="best" from="52348255#0" to="8099700#12"/>
    <trip id="bike304" type="bike_bicycle" depart="947.67" departLane="best" from="171836910#0" to="41397537#1"/>
    <trip id="bike306" type="bike_bicycle" depart="953.90" departLane="best" from="625674509#0" to="5098786"/>
    <trip id="bike307" type="bike_bicycle" depart="957.02" departLane="best" from="52394714#5" to="4890124#2"/>
    <trip id="bike309" type="bike_bicycle" depart="963.26" departLane="best" from="7666193#0" to="463089663#2"/>
    <trip id="bike310" type="bike_bicycle" depart="966.37" departLane="best" from="4704753" to="191715080#2"/>
    <trip id="bike311" type="bike_bicycle" depart="969.49" departLane="best" from="41998660#0" to="191715080#2"/>
    <trip id="bike314" type="bike_bicycle" depart="978.84" departLane="best" departSpeed="max" from="52092236#0" to="7666194"/>
    <trip id="bike315" type="bike_bicycle" depart="981.96" departLane="best" from="98711574#11" to="52361597#4"/>
    <trip id="bike316" type="bike_bicycle" depart="985.08" departLane="best" from="4758623#0" to="188336807#2"/>
    <trip id="bike317" type="bike_bicycle" depart="988.19" departLane="best" from="41998660#1" to="42164115#0"/>
    <trip id="bike318" type="bike_bicycle" depart="991.31" departLane="best" from="409233280" to="-61044481#1"/>
    <trip id="bike319" type="bike_bicycle" depart="994.43" departLane="best" from="52394714#6" to="463089664"/>
    <trip id="bike320" type="bike_bicycle" depart="997.55" departLane="best" from="98711574#10" to="608162931"/>
    <trip id="bike321" type="bike_bicycle" depart="1000.66" departLane="best" from="7666190#1" to="19873385#0"/>
    <trip id="bike322" type="bike_bicycle" depart="1003.78" departLane="best" from="829325367" to="5136439#0"/>
    <trip id="bike323" type="bike_bicycle" depart="1006.90" departLane="best" from="831769936#1" to="61044525#0"/>
    <trip id="bike324" type="bike_bicycle" depart="1010.02" departLane="best" from="5136425" to="5002133#0"/>
    <trip id="bike325" type="bike_bicycle" depart="1013.13" departLane="best" from="41197572#0" to="114102529#0"/>
    <trip id="bike326" type="bike_bicycle" depart="1016.25" departLane="best" from="97020724#0" to="5098787#2"/>
    <trip id="bike327" type="bike_bicycle" depart="1019.37" departLane="best" from="8102615#0" to="4890119#1"/>
    <trip id="bike328" type="bike_bicycle" depart="1022.49" departLane="best" from="13470130#0" to="6277214#0"/>
    <trip id="bike329" type="bike_bicycle" depart="1025.60" departLane="best" departSpeed="max" from="114102521#0" to="212738032#0"/>
    <trip id="bike331" type="bike_bicycle" depart="1031.84" departLane="best" from="99093074#0" to="191715080#2"/>
    <trip id="bike333" type="bike_bicycle" depart="1038.07" departLane="best" from="8099702#0" to="41998660#1"/>
    <trip id="bike334" type="bike_bicycle" depart="1041.19" departLane="best" departSpeed="max" from="52394714#0" to="5011434#0"/>
    <trip id="bike335" type="bike_bicycle" depart="1044.31" departLane="best" from="5011435#0" to="810730425#0"/>
    <trip id="bike336" type="bike_bicycle" depart="1047.42" departLane="best" from="9874866#4" to="4721161#0"/>
    <trip id="bike337" type="bike_bicycle" depart="1050.54" departLane="best" from="6277222" to="6277194#3"/>
    <trip id="bike338" type="bike_bicycle" depart="1053.66" departLane="best" from="7970452#0" to="98711532#8"/>
    <trip id="bike339" type="bike_bicycle" depart="1056.78" departLane="best" from="447171420#1" to="413954433#0"/>
    <trip id="bike340" type="bike_bicycle" depart="1059.89" departLane="best" from="707024130#0" to="217941242"/>
    <trip id="bike343" type="bike_bicycle" depart="1069.25" departLane="best" from="6277192#1" to="4704763#5"/>
    <trip id="bike345" type="bike_bicycle" depart="1075.48" departLane="best" from="7666193#0" to="5011435#0"/>
    <trip id="bike346" type="bike_bicycle" depart="1078.60" departLane="best" from="7666174#1" to="95512937#1"/>
    <trip id="bike347" type="bike_bicycle" depart="1081.71" departLane="best" from="8099701#0" to="6277204#2"/>