<?xml version="1.0" encoding="UTF-8"?>

<!-- generated on 2022-06-22 15:54:29 by Eclipse SUMO netconvert Version 1.13.0
<configuration xmlns:xsi="http://www.w3.org/2001/XMLSchema-instance" xsi:noNamespaceSchemaLocation="http://sumo.dlr.de/xsd/netconvertConfiguration.xsd">

    <input>
        <type-files value="/usr/share/sumo/data/typemap/osmNetconvert.typ.xml,/usr/share/sumo/data/typemap/osmNetconvertBicycle.typ.xml"/>
        <osm-files value="osm_bbox.osm.xml.gz"/>
    </input>

    <output>
        <output-file value="osm.net.xml"/>
        <output.street-names value="true"/>
        <output.original-names value="true"/>
    </output>

    <projection>
        <proj.utm value="true"/>
    </projection>

    <processing>
        <geometry.remove value="true"/>
        <roundabouts.guess value="true"/>
    </processing>

    <tls_building>
        <tls.discard-simple value="true"/>
        <tls.join value="true"/>
        <tls.guess-signals value="true"/>
        <tls.default-type value="actuated"/>
    </tls_building>

    <ramp_guessing>
        <ramps.guess value="true"/>
    </ramp_guessing>

    <edge_removal>
        <keep-edges.by-vclass value="passenger"/>
    </edge_removal>

    <junctions>
        <junctions.join value="true"/>
        <junctions.corner-detail value="5"/>
    </junctions>

    <formats>
        <osm.bike-access value="true"/>
    </formats>

    <report>
        <verbose value="true"/>
        <aggregate-warnings value="5"/>
    </report>

</configuration>
-->

<net version="1.9" junctionCornerDetail="5" limitTurnSpeed="5.50" xmlns:xsi="http://www.w3.org/2001/XMLSchema-instance" xsi:noNamespaceSchemaLocation="http://sumo.dlr.de/xsd/net_file.xsd">

    <location netOffset="-724685.01,-4371381.78" convBoundary="0.00,0.00,2051.18,1949.33" origBoundary="-0.425983,39.462667,-0.339702,39.497118" projParameter="+proj=utm +zone=30 +ellps=WGS84 +datum=WGS84 +units=m +no_defs"/>

    <type id="cycleway.lane" allow="bicycle" bikeLaneWidth="1.00"/>
    <type id="cycleway.lane|highway.cycleway" priority="1" numLanes="1" speed="13.89" allow="bicycle" oneway="0" width="3.20" bikeLaneWidth="1.00"/>
    <type id="cycleway.lane|highway.footway" priority="1" numLanes="1" speed="13.89" allow="pedestrian bicycle" oneway="1" width="3.20" bikeLaneWidth="1.00"/>
    <type id="cycleway.lane|highway.living_street" priority="2" numLanes="1" speed="13.89" disallow="tram rail_urban rail rail_electric rail_fast ship" oneway="0" bikeLaneWidth="1.00"/>
    <type id="cycleway.lane|highway.pedestrian" priority="1" numLanes="1" speed="13.89" allow="pedestrian bicycle" oneway="1" width="3.20" bikeLaneWidth="1.00"/>
    <type id="cycleway.lane|highway.residential" priority="3" numLanes="1" speed="13.89" disallow="tram rail_urban rail rail_electric rail_fast ship" oneway="0" bikeLaneWidth="1.00"/>
    <type id="cycleway.lane|highway.tertiary" priority="10" numLanes="1" speed="22.22" disallow="tram rail_urban rail rail_electric rail_fast ship" oneway="0" bikeLaneWidth="1.00"/>
    <type id="cycleway.opposite_lane" allow="bicycle" bikeLaneWidth="1.00"/>
    <type id="cycleway.opposite_track" allow="bicycle" bikeLaneWidth="1.50"/>
    <type id="cycleway.track" allow="bicycle" bikeLaneWidth="1.50"/>
    <type id="cycleway.track|highway.footway" priority="1" numLanes="1" speed="13.89" allow="pedestrian bicycle" oneway="1" width="3.20" bikeLaneWidth="1.50"/>
    <type id="cycleway.track|highway.tertiary" priority="10" numLanes="1" speed="22.22" disallow="tram rail_urban rail rail_electric rail_fast ship" oneway="0" bikeLaneWidth="1.50"/>
    <type id="highway.bridleway" priority="1" numLanes="1" speed="2.78" allow="pedestrian" oneway="1" width="2.00"/>
    <type id="highway.bus_guideway" priority="1" numLanes="1" speed="27.78" allow="bus" oneway="1"/>
    <type id="highway.cycleway" priority="1" numLanes="1" speed="8.33" allow="bicycle" oneway="0" width="1.00"/>
    <type id="highway.footway" priority="1" numLanes="1" speed="2.78" allow="pedestrian" oneway="1" width="2.00"/>
    <type id="highway.ford" priority="1" numLanes="1" speed="2.78" allow="army" oneway="0"/>
    <type id="highway.living_street" priority="2" numLanes="1" speed="2.78" disallow="tram rail_urban rail rail_electric rail_fast ship" oneway="0"/>
    <type id="highway.motorway" priority="14" numLanes="2" speed="39.44" allow="private emergency authority army vip passenger hov taxi bus coach delivery truck trailer motorcycle evehicle custom1 custom2" oneway="1"/>
    <type id="highway.motorway_link" priority="9" numLanes="1" speed="22.22" allow="private emergency authority army vip passenger hov taxi bus coach delivery truck trailer motorcycle evehicle custom1 custom2" oneway="1"/>
    <type id="highway.path" priority="1" numLanes="1" speed="2.78" allow="pedestrian bicycle" oneway="0" width="2.00"/>
    <type id="highway.pedestrian" priority="1" numLanes="1" speed="2.78" allow="pedestrian" oneway="1" width="2.00"/>
    <type id="highway.primary" priority="12" numLanes="2" speed="27.78" disallow="tram rail_urban rail rail_electric rail_fast ship" oneway="0"/>
    <type id="highway.primary_link" priority="7" numLanes="1" speed="22.22" disallow="tram rail_urban rail rail_electric rail_fast ship" oneway="0"/>
    <type id="highway.raceway" priority="15" numLanes="2" speed="83.33" allow="vip" oneway="0"/>
    <type id="highway.residential" priority="3" numLanes="1" speed="13.89" disallow="tram rail_urban rail rail_electric rail_fast ship" oneway="0"/>
    <type id="highway.secondary" priority="11" numLanes="1" speed="27.78" disallow="tram rail_urban rail rail_electric rail_fast ship" oneway="0"/>
    <type id="highway.secondary_link" priority="6" numLanes="1" speed="22.22" disallow="tram rail_urban rail rail_electric rail_fast ship" oneway="0"/>
    <type id="highway.service" priority="1" numLanes="1" speed="5.56" allow="pedestrian delivery bicycle" oneway="0"/>
    <type id="highway.stairs" priority="1" numLanes="1" speed="1.39" allow="pedestrian" oneway="1" width="2.00"/>
    <type id="highway.step" priority="1" numLanes="1" speed="1.39" allow="pedestrian" oneway="1" width="2.00"/>
    <type id="highway.steps" priority="1" numLanes="1" speed="1.39" allow="pedestrian" oneway="1" width="2.00"/>
    <type id="highway.tertiary" priority="10" numLanes="1" speed="22.22" disallow="tram rail_urban rail rail_electric rail_fast ship" oneway="0"/>
    <type id="highway.tertiary_link" priority="5" numLanes="1" speed="22.22" disallow="tram rail_urban rail rail_electric rail_fast ship" oneway="0"/>
    <type id="highway.track" priority="1" numLanes="1" speed="5.56" allow="pedestrian motorcycle moped bicycle" oneway="0"/>
    <type id="highway.trunk" priority="13" numLanes="2" speed="27.78" disallow="pedestrian bicycle tram rail_urban rail rail_electric rail_fast ship" oneway="0"/>
    <type id="highway.trunk_link" priority="8" numLanes="1" speed="22.22" disallow="pedestrian bicycle tram rail_urban rail rail_electric rail_fast ship" oneway="0"/>
    <type id="highway.unclassified" priority="4" numLanes="1" speed="13.89" disallow="tram rail_urban rail rail_electric rail_fast ship" oneway="0"/>
    <type id="highway.unsurfaced" priority="1" numLanes="1" speed="8.33" disallow="tram rail_urban rail rail_electric rail_fast ship" oneway="0"/>
    <type id="railway.highspeed" priority="21" numLanes="1" speed="69.44" allow="rail_fast" oneway="1"/>
    <type id="railway.light_rail" priority="19" numLanes="1" speed="27.78" allow="rail_urban" oneway="1"/>
    <type id="railway.preserved" priority="16" numLanes="1" speed="27.78" allow="rail" oneway="1"/>
    <type id="railway.rail" priority="20" numLanes="1" speed="44.44" allow="rail" oneway="1"/>
    <type id="railway.subway" priority="18" numLanes="1" speed="27.78" allow="rail_urban" oneway="1"/>
    <type id="railway.tram" priority="17" numLanes="1" speed="13.89" allow="tram" oneway="1"/>

    <edge id=":104413638_0" function="internal">
        <lane id=":104413638_0_0" index="0" disallow="tram rail_urban rail rail_electric rail_fast ship" speed="25.00" length="20.00" shape="245.38,861.82 242.53,859.69 240.36,855.52 237.39,850.93 232.09,847.56"/>
    </edge>
    <edge id=":104413638_1" function="internal">
        <lane id=":104413638_1_0" index="0" disallow="tram rail_urban rail rail_electric rail_fast ship" speed="8.49" length="20.94" shape="245.38,861.82 241.85,860.18 240.73,856.72 242.00,851.44 245.66,844.35"/>
    </edge>
    <edge id=":104413638_2" function="internal">
        <lane id=":104413638_2_0" index="0" disallow="tram rail_urban rail rail_electric rail_fast ship" speed="27.78" length="20.15" shape="251.71,851.79 247.88,851.59 243.60,850.85 238.48,849.52 232.09,847.56"/>
    </edge>
    <edge id=":104413638_3" function="internal">
        <lane id=":104413638_3_0" index="0" disallow="tram rail_urban rail rail_electric rail_fast ship" speed="5.63" length="9.29" shape="251.71,851.79 248.92,851.47 247.43,850.41 247.26,848.58 248.40,846.01"/>
    </edge>
    <edge id=":104413638_4" function="internal">
        <lane id=":104413638_4_0" index="0" disallow="tram rail_urban rail rail_electric rail_fast ship" speed="6.22" length="9.56" shape="233.32,858.24 234.47,855.58 234.50,853.42 233.39,851.77 231.16,850.62"/>
    </edge>
    <edge id=":104413638_5" function="internal">
        <lane id=":104413638_5_0" index="0" disallow="tram rail_urban rail rail_electric rail_fast ship" speed="13.89" length="18.33" shape="233.32,858.24 242.93,842.69"/>
        <lane id=":104413638_5_1" index="1" disallow="tram rail_urban rail rail_electric rail_fast ship" speed="13.89" length="18.33" shape="236.04,859.94 245.66,844.35"/>
        <lane id=":104413638_5_2" index="2" disallow="tram rail_urban rail rail_electric rail_fast ship" speed="13.89" length="18.33" shape="238.75,861.65 248.40,846.01"/>
    </edge>
    <edge id=":108324131_0" function="internal">
        <lane id=":108324131_0_0" index="0" disallow="tram rail_urban rail rail_electric rail_fast ship" speed="6.51" length="8.85" shape="1841.55,598.83 1840.68,601.09 1840.72,603.10 1841.69,604.86 1843.57,606.38"/>
    </edge>
    <edge id=":108324131_1" function="internal">
        <lane id=":108324131_1_0" index="0" disallow="tram rail_urban rail rail_electric rail_fast ship" speed="20.83" length="11.02" shape="1833.32,602.26 1836.02,604.09 1837.65,605.66 1839.26,607.25 1841.93,609.13"/>
        <lane id=":108324131_1_1" index="1" disallow="tram rail_urban rail rail_electric rail_fast ship" speed="20.83" length="11.02" shape="1831.74,605.04 1834.42,606.86 1836.04,608.42 1837.64,610.01 1840.29,611.88"/>
    </edge>
    <edge id=":108324392_0" function="internal">
        <lane id=":108324392_0_0" index="0" disallow="tram rail_urban rail rail_electric rail_fast ship" speed="6.51" length="8.93" shape="1737.06,543.49 1739.33,544.42 1741.35,544.40 1743.13,543.45 1744.68,541.55"/>
    </edge>
    <edge id=":108324392_1" function="internal">
        <lane id=":108324392_1_0" index="0" disallow="tram rail_urban rail rail_electric rail_fast ship" speed="13.89" length="11.11" shape="1735.45,546.26 1738.41,547.70 1740.60,548.36 1742.78,549.04 1745.69,550.56"/>
        <lane id=":108324392_1_1" index="1" disallow="tram rail_urban rail rail_electric rail_fast ship" speed="13.89" length="11.11" shape="1733.84,549.02 1736.77,550.45 1738.95,551.10 1741.11,551.78 1744.01,553.28"/>
    </edge>
    <edge id=":112531285_0" function="internal">
        <lane id=":112531285_0_0" index="0" disallow="tram rail_urban rail rail_electric rail_fast ship" speed="5.70" length="9.21" shape="318.54,707.00 320.27,709.13 321.99,709.84 323.70,709.11 325.40,706.96"/>
    </edge>
    <edge id=":112531285_1" function="internal">
        <lane id=":112531285_1_0" index="0" disallow="tram rail_urban rail rail_electric rail_fast ship" speed="13.89" length="20.72" shape="318.54,707.00 328.97,724.91"/>
    </edge>
    <edge id=":112531285_2" function="internal">
        <lane id=":112531285_2_0" index="0" disallow="tram rail_urban rail rail_electric rail_fast ship" speed="13.89" length="16.95" shape="316.71,721.45 325.40,706.96"/>
        <lane id=":112531285_2_1" index="1" disallow="tram rail_urban rail rail_electric rail_fast ship" speed="13.89" length="16.95" shape="319.44,723.12 328.16,708.58"/>
        <lane id=":112531285_2_2" index="2" disallow="tram rail_urban rail rail_electric rail_fast ship" speed="13.89" length="16.95" shape="322.17,724.78 330.91,710.21"/>
    </edge>
    <edge id=":112531285_5" function="internal">
        <lane id=":112531285_5_0" index="0" disallow="tram rail_urban rail rail_electric rail_fast ship" speed="5.68" length="9.23" shape="322.17,724.78 323.91,722.63 325.63,721.94 327.31,722.69 328.97,724.91"/>
    </edge>
    <edge id=":123789726_0" function="internal">
        <lane id=":123789726_0_0" index="0" disallow="tram rail_urban rail rail_electric rail_fast ship" speed="6.55" length="8.95" shape="280.16,770.80 282.45,771.71 284.49,771.69 286.28,770.74 287.82,768.88"/>
    </edge>
    <edge id=":123789726_1" function="internal">
        <lane id=":123789726_1_0" index="0" disallow="tram rail_urban rail rail_electric rail_fast ship" speed="13.89" length="11.02" shape="282.10,778.29 287.82,768.88"/>
        <lane id=":123789726_1_1" index="1" disallow="tram rail_urban rail rail_electric rail_fast ship" speed="13.89" length="11.02" shape="284.83,779.95 290.56,770.54"/>
        <lane id=":123789726_1_2" index="2" disallow="tram rail_urban rail rail_electric rail_fast ship" speed="13.89" length="11.02" shape="287.56,781.61 293.29,772.20"/>
    </edge>
    <edge id=":123789728_0" function="internal">
        <lane id=":123789728_0_0" index="0" disallow="tram rail_urban rail rail_electric rail_fast ship" speed="13.89" length="11.10" shape="212.38,731.41 221.91,737.10"/>
    </edge>
    <edge id=":123789728_1" function="internal">
        <lane id=":123789728_1_0" index="0" disallow="tram rail_urban rail rail_electric rail_fast ship" speed="6.51" length="8.98" shape="212.38,731.41 214.28,732.98 215.22,734.77 215.22,736.81 214.26,739.07"/>
    </edge>
    <edge id=":123789808_0" function="internal">
        <lane id=":123789808_0_0" index="0" disallow="tram rail_urban rail rail_electric rail_fast ship" speed="8.00" length="7.47" shape="305.08,684.89 306.06,685.98 307.50,686.82 309.39,687.39 311.73,687.70"/>
    </edge>
    <edge id=":123789808_1" function="internal">
        <lane id=":123789808_1_0" index="0" disallow="tram rail_urban rail rail_electric rail_fast ship" speed="13.89" length="8.04" shape="305.08,684.89 309.27,691.75"/>
    </edge>
    <edge id=":123789813_0" function="internal">
        <lane id=":123789813_0_0" index="0" disallow="tram rail_urban rail rail_electric rail_fast ship" speed="7.88" length="7.72" shape="331.73,688.17 333.98,687.90 335.83,687.27 337.30,686.28 338.39,684.94"/>
    </edge>
    <edge id=":123789813_1" function="internal">
        <lane id=":123789813_1_0" index="0" disallow="tram rail_urban rail rail_electric rail_fast ship" speed="13.89" length="7.92" shape="334.37,691.76 338.39,684.94"/>
        <lane id=":123789813_1_1" index="1" disallow="tram rail_urban rail rail_electric rail_fast ship" speed="13.89" length="7.92" shape="337.13,693.38 341.15,686.56"/>
        <lane id=":123789813_1_2" index="2" disallow="tram rail_urban rail rail_electric rail_fast ship" speed="13.89" length="7.92" shape="339.88,695.01 343.91,688.19"/>
    </edge>
    <edge id=":123789822_0" function="internal">
        <lane id=":123789822_0_0" index="0" disallow="tram rail_urban rail rail_electric rail_fast ship" speed="13.89" length="11.21" shape="290.10,491.55 280.48,485.81"/>
    </edge>
    <edge id=":123789822_1" function="internal">
        <lane id=":123789822_1_0" index="0" disallow="tram rail_urban rail rail_electric rail_fast ship" speed="6.50" length="9.03" shape="290.10,491.55 288.18,489.99 287.22,488.19 287.22,486.15 288.18,483.87"/>
    </edge>
    <edge id=":123789822_2" function="internal">
        <lane id=":123789822_2_0" index="0" disallow="tram rail_urban rail rail_electric rail_fast ship" speed="6.50" length="9.03" shape="282.42,493.48 283.38,491.20 283.37,489.16 282.41,487.36 280.48,485.81"/>
    </edge>
    <edge id=":123789822_3" function="internal">
        <lane id=":123789822_3_0" index="0" disallow="tram rail_urban rail rail_electric rail_fast ship" speed="8.33" length="11.21" shape="282.42,493.48 288.18,483.87"/>
    </edge>
    <edge id=":123789872_0" function="internal">
        <lane id=":123789872_0_0" index="0" disallow="tram rail_urban rail rail_electric rail_fast ship" speed="8.33" length="8.21" shape="223.69,593.13 228.02,586.15"/>
    </edge>
    <edge id=":123789872_1" function="internal">
        <lane id=":123789872_1_0" index="0" disallow="tram rail_urban rail rail_electric rail_fast ship" speed="7.85" length="7.58" shape="223.69,593.13 224.70,591.98 226.16,591.14 228.07,590.60 230.44,590.35"/>
    </edge>
    <edge id=":123789874_0" function="internal">
        <lane id=":123789874_0_0" index="0" disallow="tram rail_urban rail rail_electric rail_fast ship" speed="13.89" length="8.30" shape="244.15,585.44 248.44,592.55"/>
    </edge>
    <edge id=":123789874_1" function="internal">
        <lane id=":123789874_1_0" index="0" disallow="tram rail_urban rail rail_electric rail_fast ship" speed="7.53" length="2.87" shape="241.70,589.95 244.00,590.04 244.54,590.17"/>
    </edge>
    <edge id=":123789874_2" function="internal">
        <lane id=":123789874_2_0" index="0" disallow="tram rail_urban rail rail_electric rail_fast ship" speed="7.53" length="4.70" shape="244.54,590.17 245.90,590.51 247.37,591.34 248.44,592.55"/>
    </edge>
    <edge id=":1287585219_0" function="internal">
        <lane id=":1287585219_0_0" index="0" disallow="tram rail_urban rail rail_electric rail_fast ship" speed="8.33" length="8.76" shape="1081.74,1254.22 1079.54,1255.38 1078.41,1256.87 1077.29,1258.40 1075.13,1259.67"/>
    </edge>
    <edge id=":1287585221_0" function="internal">
        <lane id=":1287585221_0_0" index="0" disallow="tram rail_urban rail rail_electric rail_fast ship" speed="8.33" length="10.78" shape="1488.66,1167.34 1478.15,1169.74"/>
        <lane id=":1287585221_0_1" index="1" disallow="tram rail_urban rail rail_electric rail_fast ship" speed="8.33" length="10.78" shape="1487.95,1164.22 1477.44,1166.62"/>
        <lane id=":1287585221_0_2" index="2" disallow="tram rail_urban rail rail_electric rail_fast ship" speed="8.33" length="10.78" shape="1487.24,1161.10 1476.73,1163.50"/>
    </edge>
    <edge id=":1287585221_3" function="internal">
        <lane id=":1287585221_3_0" index="0" disallow="tram rail_urban rail rail_electric rail_fast ship" speed="6.37" length="8.91" shape="1487.24,1161.10 1484.74,1161.32 1482.82,1160.70 1481.47,1159.26 1480.69,1156.98"/>
    </edge>
    <edge id=":1287585314_0" function="internal">
        <lane id=":1287585314_0_0" index="0" allow="bicycle" speed="6.22" length="7.15" width="1.00" shape="1345.03,1201.28 1342.94,1201.98 1341.47,1202.99 1340.63,1204.29 1340.43,1205.89"/>
        <lane id=":1287585314_0_1" index="1" disallow="bicycle tram rail_urban rail rail_electric rail_fast ship" speed="7.09" length="9.56" shape="1344.79,1200.21 1341.86,1201.15 1339.81,1202.45 1338.64,1204.11 1338.34,1206.11"/>
    </edge>
    <edge id=":1287585314_2" function="internal">
        <lane id=":1287585314_2_0" index="0" disallow="tram rail_urban rail rail_electric rail_fast ship" speed="8.33" length="11.41" shape="1344.79,1200.21 1333.66,1202.75"/>
        <lane id=":1287585314_2_1" index="1" disallow="tram rail_urban rail rail_electric rail_fast ship" speed="8.33" length="11.41" shape="1344.07,1197.09 1332.95,1199.63"/>
        <lane id=":1287585314_2_2" index="2" disallow="tram rail_urban rail rail_electric rail_fast ship" speed="8.33" length="11.41" shape="1343.36,1193.97 1332.24,1196.51"/>
    </edge>
    <edge id=":1287585314_5" function="internal">
        <lane id=":1287585314_5_0" index="0" allow="bicycle" speed="8.33" length="15.50" width="1.00" shape="1340.00,1190.40 1340.43,1205.89"/>
    </edge>
    <edge id=":1287585314_6" function="internal">
        <lane id=":1287585314_6_0" index="0" allow="bicycle" speed="8.33" length="15.87" width="1.00" shape="1340.00,1190.40 1339.66,1195.74 1338.53,1199.76 1336.61,1202.45 1333.91,1203.82"/>
    </edge>
    <edge id=":1287585314_7" function="internal">
        <lane id=":1287585314_7_0" index="0" disallow="bicycle tram rail_urban rail rail_electric rail_fast ship" speed="8.33" length="15.86" shape="1337.90,1190.26 1338.34,1206.11"/>
    </edge>
    <edge id=":1287585314_8" function="internal">
        <lane id=":1287585314_8_0" index="0" disallow="bicycle tram rail_urban rail rail_electric rail_fast ship" speed="7.89" length="11.49" shape="1337.90,1190.26 1337.62,1193.93 1336.70,1196.72 1335.14,1198.62 1332.95,1199.63"/>
        <lane id=":1287585314_8_1" index="1" disallow="bicycle tram rail_urban rail rail_electric rail_fast ship" speed="7.13" length="9.22" shape="1337.90,1190.26 1337.56,1192.50 1336.51,1194.30 1334.73,1195.63 1332.24,1196.51"/>
    </edge>
    <edge id=":1287585331_0" function="internal">
        <lane id=":1287585331_0_0" index="0" disallow="tram rail_urban rail rail_electric rail_fast ship" speed="8.33" length="11.78" shape="1179.14,1238.08 1167.63,1240.70"/>
        <lane id=":1287585331_0_1" index="1" disallow="tram rail_urban rail rail_electric rail_fast ship" speed="8.33" length="11.78" shape="1178.42,1234.96 1166.93,1237.58"/>
        <lane id=":1287585331_0_2" index="2" disallow="tram rail_urban rail rail_electric rail_fast ship" speed="8.33" length="11.78" shape="1177.69,1231.84 1166.22,1234.46"/>
    </edge>
    <edge id=":1287585331_3" function="internal">
        <lane id=":1287585331_3_0" index="0" disallow="tram rail_urban rail rail_electric rail_fast ship" speed="6.64" length="9.97" shape="1177.69,1231.84 1174.40,1232.29 1171.95,1231.93 1170.32,1230.74 1169.52,1228.74"/>
        <lane id=":1287585331_3_1" index="1" disallow="tram rail_urban rail rail_electric rail_fast ship" speed="5.92" length="8.69" shape="1177.69,1231.84 1175.47,1231.96 1173.90,1231.14 1172.99,1229.38 1172.74,1226.68"/>
    </edge>
    <edge id=":1287585347_0" function="internal">
        <lane id=":1287585347_0_0" index="0" allow="bicycle" speed="4.90" length="5.60" width="1.00" shape="1265.80,1222.99 1265.33,1221.52 1264.50,1220.58 1263.31,1220.18 1261.77,1220.30"/>
        <lane id=":1287585347_0_1" index="1" disallow="bicycle tram rail_urban rail rail_electric rail_fast ship" speed="6.15" length="8.30" shape="1267.87,1222.64 1267.18,1220.67 1265.88,1219.45 1264.00,1218.97 1261.52,1219.23"/>
    </edge>
    <edge id=":1287585347_2" function="internal">
        <lane id=":1287585347_2_0" index="0" disallow="tram rail_urban rail rail_electric rail_fast ship" speed="8.33" length="10.21" shape="1271.47,1216.96 1261.52,1219.23"/>
        <lane id=":1287585347_2_1" index="1" disallow="tram rail_urban rail rail_electric rail_fast ship" speed="8.33" length="10.21" shape="1270.76,1213.84 1260.81,1216.11"/>
        <lane id=":1287585347_2_2" index="2" disallow="tram rail_urban rail rail_electric rail_fast ship" speed="8.33" length="10.21" shape="1270.05,1210.72 1260.10,1212.99"/>
    </edge>
    <edge id=":168356718_0" function="internal">
        <lane id=":168356718_0_0" index="0" disallow="tram rail_urban rail rail_electric rail_fast ship" speed="12.50" length="0.30" shape="484.36,788.04 484.14,788.24"/>
        <lane id=":168356718_0_1" index="1" disallow="tram rail_urban rail rail_electric rail_fast ship" speed="12.50" length="0.30" shape="482.20,785.68 481.98,785.88"/>
    </edge>
    <edge id=":168356747_0" function="internal">
        <lane id=":168356747_0_0" index="0" disallow="tram rail_urban rail rail_electric rail_fast ship" speed="20.83" length="4.95" shape="301.18,829.82 300.33,831.15 299.71,832.03 299.04,832.89 298.06,834.12"/>
        <lane id=":168356747_0_1" index="1" disallow="tram rail_urban rail rail_electric rail_fast ship" speed="20.83" length="4.95" shape="298.46,828.13 297.67,829.37 297.09,830.19 296.47,830.98 295.55,832.13"/>
        <lane id=":168356747_0_2" index="2" disallow="tram rail_urban rail rail_electric rail_fast ship" speed="20.83" length="4.95" shape="295.74,826.44 295.01,827.59 294.47,828.35 293.90,829.08 293.04,830.14"/>
    </edge>
    <edge id=":168356747_3" function="internal">
        <lane id=":168356747_3_0" index="0" disallow="tram rail_urban rail rail_electric rail_fast ship" speed="20.83" length="4.05" shape="293.02,824.75 292.38,825.77 291.90,826.44 291.36,827.07 290.53,827.93"/>
        <lane id=":168356747_3_1" index="1" disallow="tram rail_urban rail rail_electric rail_fast ship" speed="20.83" length="3.36" shape="290.30,823.06 289.77,823.91 289.37,824.47 288.93,824.98 288.24,825.70"/>
    </edge>
    <edge id=":168356751_0" function="internal">
        <lane id=":168356751_0_0" index="0" disallow="tram rail_urban rail rail_electric rail_fast ship" speed="27.78" length="8.47" shape="269.87,844.62 268.11,846.40 266.81,847.53 265.35,848.46 263.15,849.65"/>
    </edge>
    <edge id=":1771271224_0" function="internal">
        <lane id=":1771271224_0_0" index="0" allow="bicycle" speed="4.95" length="4.98" width="1.00" shape="790.74,1078.38 790.26,1077.19 789.45,1076.47 788.33,1076.22 786.88,1076.44"/>
        <lane id=":1771271224_0_1" index="1" disallow="bicycle tram rail_urban rail rail_electric rail_fast ship" speed="5.95" length="7.66" shape="791.81,1078.14 791.05,1076.05 789.88,1074.73 788.30,1074.19 786.31,1074.42"/>
    </edge>
    <edge id=":1771271224_2" function="internal">
        <lane id=":1771271224_2_0" index="0" allow="bicycle" speed="13.89" length="7.66" width="1.00" shape="794.25,1074.29 786.88,1076.44"/>
        <lane id=":1771271224_2_1" index="1" disallow="bicycle tram rail_urban rail rail_electric rail_fast ship" speed="13.89" length="7.66" shape="793.65,1072.28 786.31,1074.42"/>
    </edge>
    <edge id=":1828089463_0" function="internal">
        <lane id=":1828089463_0_0" index="0" disallow="tram rail_urban rail rail_electric rail_fast ship" speed="8.33" length="0.29" shape="1342.45,822.69 1342.16,822.68"/>
    </edge>
    <edge id=":1992142895_0" function="internal">
        <lane id=":1992142895_0_0" index="0" disallow="tram rail_urban rail rail_electric rail_fast ship" speed="6.84" length="9.25" shape="813.82,1155.91 811.39,1155.78 809.49,1154.89 808.12,1153.23 807.28,1150.81"/>
    </edge>
    <edge id=":1992142895_1" function="internal">
        <lane id=":1992142895_1_0" index="0" disallow="tram rail_urban rail rail_electric rail_fast ship" speed="6.32" length="9.02" shape="802.71,1157.07 805.14,1156.43 806.71,1155.18 807.42,1153.30 807.28,1150.81"/>
    </edge>
    <edge id=":207686127_0" function="internal">
        <lane id=":207686127_0_0" index="0" disallow="tram rail_urban rail rail_electric rail_fast ship" speed="8.33" length="0.10" shape="879.11,1196.15 879.11,1196.15"/>
    </edge>
    <edge id=":208232349_0" function="internal">
        <lane id=":208232349_0_0" index="0" disallow="tram rail_urban rail rail_electric rail_fast ship" speed="20.83" length="10.89" shape="1846.04,607.85 1848.66,609.70 1850.24,611.28 1851.82,612.87 1854.44,614.72"/>
        <lane id=":208232349_0_1" index="1" disallow="tram rail_urban rail rail_electric rail_fast ship" speed="20.83" length="10.89" shape="1844.40,610.60 1847.03,612.45 1848.60,614.03 1850.18,615.61 1852.80,617.47"/>
    </edge>
    <edge id=":208232349_2" function="internal">
        <lane id=":208232349_2_0" index="0" disallow="tram rail_urban rail rail_electric rail_fast ship" speed="6.51" length="8.70" shape="1842.76,613.35 1844.61,614.83 1845.57,616.57 1845.65,618.55 1844.85,620.78"/>
    </edge>
    <edge id=":208232354_0" function="internal">
        <lane id=":208232354_0_0" index="0" disallow="tram rail_urban rail rail_electric rail_fast ship" speed="20.83" length="11.23" shape="1836.77,647.56 1827.09,641.84"/>
        <lane id=":208232354_0_1" index="1" disallow="tram rail_urban rail rail_electric rail_fast ship" speed="20.83" length="11.23" shape="1838.39,644.80 1828.73,639.09"/>
    </edge>
    <edge id=":208232354_2" function="internal">
        <lane id=":208232354_2_0" index="0" disallow="tram rail_urban rail rail_electric rail_fast ship" speed="6.40" length="9.04" shape="1836.27,636.99 1834.80,639.00 1833.05,640.02 1831.03,640.05 1828.73,639.09"/>
    </edge>
    <edge id=":208232360_0" function="internal">
        <lane id=":208232360_0_0" index="0" disallow="tram rail_urban rail rail_electric rail_fast ship" speed="13.89" length="10.98" shape="1810.79,634.10 1801.30,628.58"/>
        <lane id=":208232360_0_1" index="1" disallow="tram rail_urban rail rail_electric rail_fast ship" speed="13.89" length="10.98" shape="1812.40,631.34 1802.91,625.82"/>
        <lane id=":208232360_0_2" index="2" disallow="tram rail_urban rail rail_electric rail_fast ship" speed="13.89" length="10.98" shape="1814.01,628.57 1804.52,623.05"/>
    </edge>
    <edge id=":208232360_3" function="internal">
        <lane id=":208232360_3_0" index="0" disallow="tram rail_urban rail rail_electric rail_fast ship" speed="6.54" length="8.92" shape="1814.01,628.57 1812.11,627.07 1811.14,625.30 1811.08,623.27 1811.95,620.97"/>
    </edge>
    <edge id=":208232366_0" function="internal">
        <lane id=":208232366_0_0" index="0" disallow="tram rail_urban rail rail_electric rail_fast ship" speed="13.89" length="11.15" shape="1820.08,594.62 1829.71,600.20"/>
        <lane id=":208232366_0_1" index="1" disallow="tram rail_urban rail rail_electric rail_fast ship" speed="13.89" length="11.15" shape="1818.45,597.37 1828.12,602.98"/>
    </edge>
    <edge id=":208232366_2" function="internal">