<?xml version="1.0" encoding="UTF-8"?>

<!-- generated on 2022-06-22 15:54:30 by Eclipse SUMO duarouter Version 1.13.0
<configuration xmlns:xsi="http://www.w3.org/2001/XMLSchema-instance" xsi:noNamespaceSchemaLocation="http://sumo.dlr.de/xsd/duarouterConfiguration.xsd">

    <input>
        <net-file value="/home/mickael/Sumo/2022-06-22-15-54-25/osm.net.xml"/>
        <route-files value="/home/mickael/Sumo/2022-06-22-15-54-25/osm.passenger.trips.xml"/>
    </input>

    <output>
        <output-file value="/home/mickael/Sumo/2022-06-22-15-54-25/osm.passenger.trips.xml.tmp"/>
        <write-trips value="true"/>
    </output>

    <time>
        <begin value="0"/>
        <end value="3600"/>
    </time>

    <report>
        <no-warnings value="true"/>
        <ignore-errors value="true"/>
        <no-step-log value="true"/>
    </report>

</configuration>
-->

<routes xmlns:xsi="http://www.w3.org/2001/XMLSchema-instance" xsi:noNamespaceSchemaLocation="http://sumo.dlr.de/xsd/routes_file.xsd">
    <vType id="veh_passenger" vClass="passenger"/>
    <trip id="veh0" type="veh_passenger" depart="0.00" departLane="best" from="721295134#0" to="-965741022"/>
    <trip id="veh1" type="veh_passenger" depart="1.38" departLane="best" from="4721157#7" to="319005198"/>
    <trip id="veh2" type="veh_passenger" depart="2.76" departLane="best" departSpeed="max" from="8099700#0" to="707024131#0"/>
    <trip id="veh3" type="veh_passenger" depart="4.13" departLane="best" from="95512934#6" to="16360344"/>
    <trip id="veh4" type="veh_passenger" depart="5.51" departLane="best" from="5011435#0" to="-97020724#3"/>
    <trip id="veh6" type="veh_passenger" depart="8.27" departLane="best" from="-98711555#1" to="314809207#2"/>
    <trip id="veh7" type="veh_passenger" depart="9.64" departLane="best" from="7666172#0" to="61044478#0"/>
    <trip id="veh8" type="veh_passenger" depart="11.02" departLane="best" from="447271371#0" to="61720119#0"/>
    <trip id="veh9" type="veh_passenger" depart="12.40" departLane="best" departSpeed="max" from="810730426#0" to="-497484170"/>
    <trip id="veh10" type="veh_passenger" depart="13.78" departLane="best" departSpeed="max" from="810730426#0" to="7666165#0"/>
    <trip id="veh11" type="veh_passenger" depart="15.16" departLane="best" from="488770041#0" to="20855254#0"/>
    <trip id="veh12" type="veh_passenger" depart="16.53" departLane="best" from="98711534#4" to="4721158#3"/>
    <trip id="veh14" type="veh_passenger" depart="19.29" departLane="best" departSpeed="max" from="9281420#0" to="625169864#0"/>
    <trip id="veh15" type="veh_passenger" depart="20.67" departLane="best" departSpeed="max" from="810730426#0" to="770904166#0"/>
    <trip id="veh16" type="veh_passenger" depart="22.04" departLane="best" from="61044485#2" to="98711574#12"/>
    <trip id="veh17" type="veh_passenger" depart="23.42" departLane="best" from="833815194#0" to="6277197#0"/>
    <trip id="veh18" type="veh_passenger" depart="24.80" departLane="best" departSpeed="max" from="9286410#0" to="61044525#0"/>
    <trip id="veh19" type="veh_passenger" depart="26.18" departLane="best" from="7970445#1" to="114102529#3"/>
    <trip id="veh20" type="veh_passenger" depart="27.56" departLane="best" from="447271371#6" to="447710247#0"/>
    <trip id="veh22" type="veh_passenger" depart="30.31" departLane="best" departSpeed="max" from="721219459#0" to="4806363#0"/>
    <trip id="veh23" type="veh_passenger" depart="31.69" departLane="best" departSpeed="max" from="4890121#0" to="314809790#0"/>
    <trip id="veh24" type="veh_passenger" depart="33.07" departLane="best" from="4704763#0" to="98711543#0"/>
    <trip id="veh25" type="veh_passenger" depart="34.44" departLane="best" from="7666165#0" to="627037403"/>
    <trip id="veh26" type="veh_passenger" depart="35.82" departLane="best" from="319005196#1" to="770904164"/>
    <trip id="veh27" type="veh_passenger" depart="37.20" departLane="best" from="314809790#0" to="4808269#4"/>
    <trip id="veh28" type="veh_passenger" depart="38.58" departLane="best" from="9874866#3" to="6277222"/>
    <trip id="veh29" type="veh_passenger" depart="39.96" departLane="best" from="61722208#1" to="721295134#0"/>
    <trip id="veh30" type="veh_passenger" depart="41.33" departLane="best" departSpeed="max" from="9281420#0" to="8049797#0"/>
    <trip id="veh31" type="veh_passenger" depart="42.71" departLane="best" from="447271371#6" to="-98711555#1"/>
    <trip id="veh32" type="veh_passenger" depart="44.09" departLane="best" from="4808254#0" to="447186569"/>
    <trip id="veh33" type="veh_passenger" depart="45.47" departLane="best" from="7666175#0" to="4823221#0"/>
    <trip id="veh35" type="veh_passenger" depart="48.22" departLane="best" departSpeed="max" from="6277202" to="95512944#0"/>
    <trip id="veh36" type="veh_passenger" depart="49.60" departLane="best" from="4890125#3" to="319005198"/>
    <trip id="veh37" type="veh_passenger" depart="50.98" departLane="best" from="99093074#0" to="52348255#0"/>
    <trip id="veh39" type="veh_passenger" depart="53.73" departLane="best" departSpeed="max" from="211248470#0" to="6277204#0"/>
    <trip id="veh40" type="veh_passenger" depart="55.11" departLane="best" from="8102632#0" to="4890120#0"/>
    <trip id="veh41" type="veh_passenger" depart="56.49" departLane="best" from="114102529#0" to="4808270#0"/>
    <trip id="veh42" type="veh_passenger" depart="57.87" departLane="best" from="9874977#0" to="52372532#0"/>
    <trip id="veh43" type="veh_passenger" depart="59.25" departLane="best" from="98711574#10" to="9281145"/>
    <trip id="veh44" type="veh_passenger" depart="60.62" departLane="best" from="-61044481#6" to="7666194"/>
    <trip id="veh45" type="veh_passenger" depart="62.00" departLane="best" from="770904166#0" to="52394714#6"/>
    <trip id="veh46" type="veh_passenger" depart="63.38" departLane="best" from="4704763#0" to="6277224#0"/>
    <trip id="veh47" type="veh_passenger" depart="64.76" departLane="best" departSpeed="max" from="211248470#0" to="4890124#0"/>
    <trip id="veh48" type="veh_passenger" depart="66.13" departLane="best" departSpeed="max" from="52092236#0" to="98711574#10"/>
    <trip id="veh49" type="veh_passenger" depart="67.51" departLane="best" departSpeed="max" from="9286410#0" to="42165762"/>
    <trip id="veh50" type="veh_passenger" depart="68.89" departLane="best" departSpeed="max" from="52394714#0" to="212738032#0"/>
    <trip id="veh51" type="veh_passenger" depart="70.27" departLane="best" from="4795045#0" to="6277222"/>
    <trip id="veh52" type="veh_passenger" depart="71.65" departLane="best" departSpeed="max" from="640319786" to="20855254#0"/>
    <trip id="veh53" type="veh_passenger" depart="73.02" departLane="best" from="8102614#0" to="52372535#0"/>
    <trip id="veh54" type="veh_passenger" depart="74.40" departLane="best" from="-94124274#1" to="98711534#1"/>
    <trip id="veh55" type="veh_passenger" depart="75.78" departLane="best" from="4806363#0" to="11621483"/>
    <trip id="veh56" type="veh_passenger" depart="77.16" departLane="best" from="9286413" to="98711572"/>
    <trip id="veh57" type="veh_passenger" depart="78.53" departLane="best" from="187017776#0" to="5098787#0"/>
    <trip id="veh58" type="veh_passenger" depart="79.91" departLane="best" from="114102533#0" to="7970451#0"/>
    <trip id="veh59" type="veh_passenger" depart="81.29" departLane="best" from="8099709#0" to="191715080#0"/>
    <trip id="veh60" type="veh_passenger" depart="82.67" departLane="best" from="4704762#0" to="94124278"/>
    <trip id="veh61" type="veh_passenger" depart="84.05" departLane="best" from="61044485#2" to="770904166#0"/>
    <trip id="veh62" type="veh_passenger" depart="85.42" departLane="best" from="440053128" to="463089663#0"/>
    <trip id="veh63" type="veh_passenger" depart="86.80" departLane="best" from="9874977#0" to="6277228"/>
    <trip id="veh64" type="veh_passenger" depart="88.18" departLane="best" from="5098786" to="52361586"/>
    <trip id="veh65" type="veh_passenger" depart="89.56" departLane="best" departSpeed="max" from="211248470#0" to="37034412#4"/>
    <trip id="veh66" type="veh_passenger" depart="90.93" departLane="best" from="488770040#0" to="61044540"/>
    <trip id="veh67" type="veh_passenger" depart="92.31" departLane="best" from="447271375" to="319005198"/>
    <trip id="veh69" type="veh_passenger" depart="95.07" departLane="best" from="447271371#6" to="95512944#2"/>
    <trip id="veh70" type="veh_passenger" depart="96.45" departLane="best" departSpeed="max" from="9286410#0" to="154012610#0"/>
    <trip id="veh71" type="veh_passenger" depart="97.82" departLane="best" from="447710246" to="669328123#2"/>
    <trip id="veh72" type="veh_passenger" depart="99.20" departLane="best" departSpeed="max" from="447171439#0" to="191715080#2"/>
    <trip id="veh73" type="veh_passenger" depart="100.58" departLane="best" departSpeed="max" from="98711532#0" to="61044525#0"/>
    <trip id="veh74" type="veh_passenger" depart="101.96" departLane="best" departSpeed="max" from="52361597#0" to="8099700#12"/>
    <trip id="veh75" type="veh_passenger" depart="103.33" departLane="best" departSpeed="max" from="810730426#0" to="314808382"/>
    <trip id="veh76" type="veh_passenger" depart="104.71" departLane="best" from="19873388#0" to="4890124#0"/>
    <trip id="veh77" type="veh_passenger" depart="106.09" departLane="best" from="8049800" to="707024130#0"/>
    <trip id="veh78" type="veh_passenger" depart="107.47" departLane="best" from="98711574#6" to="191617371#0"/>
    <trip id="veh79" type="veh_passenger" depart="108.85" departLane="best" from="4890126#2" to="4721161#0"/>
    <trip id="veh80" type="veh_passenger" depart="110.22" departLane="best" departSpeed="max" from="9286410#0" to="41397537#0"/>
    <trip id="veh81" type="veh_passenger" depart="111.60" departLane="best" from="41397536" to="4890126#0"/>
    <trip id="veh82" type="veh_passenger" depart="112.98" departLane="best" from="5011435#0" to="447271371#6"/>
    <trip id="veh83" type="veh_passenger" depart="114.36" departLane="best" from="463089662" to="98711532#8"/>
    <trip id="veh84" type="veh_passenger" depart="115.73" departLane="best" from="5136421#0" to="9281145"/>
    <trip id="veh85" type="veh_passenger" depart="117.11" departLane="best" from="61722208#0" to="11621483"/>
    <trip id="veh86" type="veh_passenger" depart="118.49" departLane="best" from="99093093#3" to="8102636#3"/>
    <trip id="veh87" type="veh_passenger" depart="119.87" departLane="best" departSpeed="max" from="9281420#0" to="20855254#0"/>
    <trip id="veh88" type="veh_passenger" depart="121.25" departLane="best" from="52361597#3" to="314809790#0"/>
    <trip id="veh89" type="veh_passenger" depart="122.62" departLane="best" from="4890126#0" to="11621483"/>
    <trip id="veh90" type="veh_passenger" depart="124.00" departLane="best" from="4890122#1" to="9874866#0"/>
    <trip id="veh91" type="veh_passenger" depart="125.38" departLane="best" from="4704762#3" to="8099700#12"/>
    <trip id="veh92" type="veh_passenger" depart="126.76" departLane="best" departSpeed="max" from="52092236#0" to="4890120#1"/>
    <trip id="veh93" type="veh_passenger" depart="128.13" departLane="best" from="98711534#4" to="9874977#0"/>
    <trip id="veh95" type="veh_passenger" depart="130.89" departLane="best" from="98711574#1" to="61044525#0"/>
    <trip id="veh96" type="veh_passenger" depart="132.27" departLane="best" from="61044485#5" to="7970445#0"/>
    <trip id="veh97" type="veh_passenger" depart="133.65" departLane="best" departSpeed="max" from="114102521#0" to="61044525#0"/>
    <trip id="veh98" type="veh_passenger" depart="135.02" departLane="best" from="52394714#3" to="8811243"/>
    <trip id="veh99" type="veh_passenger" depart="136.40" departLane="best" from="314809207#1" to="98711574#12"/>
    <trip id="veh101" type="veh_passenger" depart="139.16" departLane="best" from="6277222" to="707024130#0"/>
    <trip id="veh102" type="veh_passenger" depart="140.54" departLane="best" from="95512934#2" to="41397536"/>
    <trip id="veh103" type="veh_passenger" depart="141.91" departLane="best" from="6277222" to="6277197#2"/>
    <trip id="veh104" type="veh_passenger" depart="143.29" departLane="best" from="5011435#0" to="61044525#0"/>
    <trip id="veh106" type="veh_passenger" depart="146.05" departLane="best" departSpeed="max" from="447171420#0" to="7666191#0"/>
    <trip id="veh107" type="veh_passenger" depart="147.42" departLane="best" from="447710247#0" to="4823221#0"/>
    <trip id="veh109" type="veh_passenger" depart="150.18" departLane="best" from="4808254#5" to="7970445#0"/>
    <trip id="veh110" type="veh_passenger" depart="151.56" departLane="best" from="13470130#0" to="5011431#0"/>
    <trip id="veh111" type="veh_passenger" depart="152.94" departLane="best" from="99093093#0" to="9874977#0"/>
    <trip id="veh113" type="veh_passenger" depart="155.69" departLane="best" from="4704762#3" to="98711543#0"/>
    <trip id="veh114" type="veh_passenger" depart="157.07" departLane="best" from="94124274#0" to="94131903#0"/>
    <trip id="veh115" type="veh_passenger" depart="158.45" departLane="best" departSpeed="max" from="4890121#0" to="20855254#0"/>
    <trip id="veh116" type="veh_passenger" depart="159.82" departLane="best" departSpeed="max" from="640319786" to="9874866#0"/>
    <trip id="veh117" type="veh_passenger" depart="161.20" departLane="best" from="7666174#1" to="-497484170"/>
    <trip id="veh119" type="veh_passenger" depart="163.96" departLane="best" from="7666190#1" to="98711543#0"/>
    <trip id="veh120" type="veh_passenger" depart="165.34" departLane="best" from="211290865#0" to="191617373"/>
    <trip id="veh121" type="veh_passenger" depart="166.71" departLane="best" departSpeed="max" from="211248470#0" to="61044484"/>
    <trip id="veh122" type="veh_passenger" depart="168.09" departLane="best" from="4704763#5" to="625169864#0"/>
    <trip id="veh123" type="veh_passenger" depart="169.47" departLane="best" from="800130446#0" to="314809207#2"/>
    <trip id="veh124" type="veh_passenger" depart="170.85" departLane="best" from="52361597#4" to="95512944#2"/>
    <trip id="veh125" type="veh_passenger" depart="172.22" departLane="best" departSpeed="max" from="9281420#0" to="188336807#2"/>
    <trip id="veh126" type="veh_passenger" depart="173.60" departLane="best" from="5011437#0" to="447271371#6"/>
    <trip id="veh128" type="veh_passenger" depart="176.36" departLane="best" from="8099700#10" to="61044484"/>
    <trip id="veh129" type="veh_passenger" depart="177.74" departLane="best" departSpeed="max" from="5073109#0" to="-61044481#1"/>
    <trip id="veh130" type="veh_passenger" depart="179.11" departLane="best" from="154012610#0" to="95512934#6"/>
    <trip id="veh131" type="veh_passenger" depart="180.49" departLane="best" from="95512944#0" to="61044481#0"/>
    <trip id="veh132" type="veh_passenger" depart="181.87" departLane="best" from="882336973" to="61044525#0"/>
    <trip id="veh133" type="veh_passenger" depart="183.25" departLane="best" from="23395881#0" to="191715080#0"/>
    <trip id="veh134" type="veh_passenger" depart="184.62" departLane="best" from="4808250#0" to="95512944#1"/>
    <trip id="veh135" type="veh_passenger" depart="186.00" departLane="best" from="95512937#1" to="314809790#0"/>
    <trip id="veh136" type="veh_passenger" depart="187.38" departLane="best" from="463089662" to="191617371#0"/>
    <trip id="veh137" type="veh_passenger" depart="188.76" departLane="best" from="8102614#0" to="95512935#0"/>
    <trip id="veh138" type="veh_passenger" depart="190.14" departLane="best" departSpeed="max" from="497484170" to="6277199#0"/>
    <trip id="veh139" type="veh_passenger" depart="191.51" departLane="best" from="314809207#0" to="98711534#1"/>
    <trip id="veh140" type="veh_passenger" depart="192.89" departLane="best" departSpeed="max" from="9286410#0" to="98711574#4"/>
    <trip id="veh141" type="veh_passenger" depart="194.27" departLane="best" departSpeed="max" from="810730426#0" to="95512934#2"/>
    <trip id="veh142" type="veh_passenger" depart="195.65" departLane="best" from="-97020724#3" to="7724658#0"/>
    <trip id="veh143" type="veh_passenger" depart="197.02" departLane="best" from="4823221#0" to="98711534#4"/>
    <trip id="veh144" type="veh_passenger" depart="198.40" departLane="best" departSpeed="max" from="810730426#0" to="447171420#1"/>
    <trip id="veh145" type="veh_passenger" depart="199.78" departLane="best" from="8102627#0" to="191617371#0"/>
    <trip id="veh146" type="veh_passenger" depart="201.16" departLane="best" from="447271371#0" to="8102613#0"/>
    <trip id="veh148" type="veh_passenger" depart="203.91" departLane="best" from="8102634#0" to="372352253"/>
    <trip id="veh149" type="veh_passenger" depart="205.29" departLane="best" from="-97020724#1" to="314808382"/>
    <trip id="veh150" type="veh_passenger" depart="206.67" departLane="best" from="4823218#0" to="9281145"/>
    <trip id="veh151" type="veh_passenger" depart="208.05" departLane="best" from="98711574#1" to="447271375"/>
    <trip id="veh152" type="veh_passenger" depart="209.42" departLane="best" from="721295134#0" to="4826231#0"/>
    <trip id="veh153" type="veh_passenger" depart="210.80" departLane="best" from="98711574#5" to="52394714#6"/>
    <trip id="veh154" type="veh_passenger" depart="212.18" departLane="best" departSpeed="max" from="98711532#0" to="191617373"/>
    <trip id="veh155" type="veh_passenger" depart="213.56" departLane="best" from="98711574#10" to="212738032#0"/>
    <trip id="veh156" type="veh_passenger" depart="214.94" departLane="best" from="98711572" to="440053128"/>
    <trip id="veh157" type="veh_passenger" depart="216.31" departLane="best" departSpeed="max" from="211248470#0" to="4890124#0"/>
    <trip id="veh158" type="veh_passenger" depart="217.69" departLane="best" from="8049800" to="463089663#2"/>
    <trip id="veh159" type="veh_passenger" depart="219.07" departLane="best" from="6277231#0" to="52348256#0"/>
    <trip id="veh160" type="veh_passenger" depart="220.45" departLane="best" from="4890124#0" to="61044525#0"/>
    <trip id="veh162" type="veh_passenger" depart="223.20" departLane="best" from="61044485#2" to="7666193#0"/>
    <trip id="veh163" type="veh_passenger" depart="224.58" departLane="best" from="8099700#10" to="669328123#2"/>
    <trip id="veh164" type="veh_passenger" depart="225.96" departLane="best" from="4890120#0" to="154012610#0"/>
    <trip id="veh165" type="veh_passenger" depart="227.34" departLane="best" from="7666190#1" to="4704763#5"/>
    <trip id="veh166" type="veh_passenger" depart="228.71" departLane="best" from="4808250#4" to="831769936#0"/>
    <trip id="veh168" type="veh_passenger" depart="231.47" departLane="best" from="4808250#0" to="488770041#0"/>
    <trip id="veh169" type="veh_passenger" depart="232.85" departLane="best" from="211248470#1" to="4890119#1"/>
    <trip id="veh170" type="veh_passenger" depart="234.23" departLane="best" departSpeed="max" from="98711532#0" to="707024131#0"/>
    <trip id="veh171" type="veh_passenger" depart="235.60" departLane="best" from="95512944#0" to="6277192#1"/>
    <trip id="veh172" type="veh_passenger" depart="236.98" departLane="best" from="4795046#0" to="61044481#2"/>
    <trip id="veh173" type="veh_passenger" depart="238.36" departLane="best" from="-191144570#1" to="447710246"/>
    <trip id="veh174" type="veh_passenger" depart="239.74" departLane="best" departSpeed="max" from="5073109#0" to="61044525#0"/>
    <trip id="veh175" type="veh_passenger" depart="241.11" departLane="best" from="7666174#1" to="5011435#0"/>
    <trip id="veh176" type="veh_passenger" depart="242.49" departLane="best" departSpeed="max" from="52361597#0" to="95512944#1"/>
    <trip id="veh178" type="veh_passenger" depart="245.25" departLane="best" from="171836910#0" to="52361586"/>
    <trip id="veh179" type="veh_passenger" depart="246.63" departLane="best" departSpeed="max" from="721219459#0" to="4721158#0"/>
    <trip id="veh180" type="veh_passenger" depart="248.00" departLane="best" from="823356688#2" to="7970445#0"/>
    <trip id="veh181" type="veh_passenger" depart="249.38" departLane="best" from="7666196#0" to="37034412#4"/>
    <trip id="veh182" type="veh_passenger" depart="250.76" departLane="best" from="42165762" to="-94124274#1"/>
    <trip id="veh183" type="veh_passenger" depart="252.14" departLane="best" from="447835763" to="5073110#0"/>
    <trip id="veh184" type="veh_passenger" depart="253.51" departLane="best" departSpeed="max" from="9281420#0" to="16077064#0"/>
    <trip id="veh185" type="veh_passenger" depart="254.89" departLane="best" from="5007131#0" to="6277204#2"/>
    <trip id="veh186" type="veh_passenger" depart="256.27" departLane="best" from="41998660#0" to="7666163#3"/>
    <trip id="veh187" type="veh_passenger" depart="257.65" departLane="best" from="52372535#0" to="41397536"/>
    <trip id="veh188" type="veh_passenger" depart="259.03" departLane="best" from="7666175#0" to="-497484170"/>
    <trip id="veh189" type="veh_passenger" depart="260.40" departLane="best" from="8099700#8" to="803049231#0"/>
    <trip id="veh190" type="veh_passenger" depart="261.78" departLane="best" departSpeed="max" from="211248470#0" to="4890121#2"/>
    <trip id="veh191" type="veh_passenger" depart="263.16" departLane="best" from="37064503#0" to="98711574#11"/>
    <trip id="veh192" type="veh_passenger" depart="264.54" departLane="best" from="61044481#2" to="11621483"/>
    <trip id="veh193" type="veh_passenger" depart="265.91" departLane="best" from="463089661" to="831769936#0"/>
    <trip id="veh194" type="veh_passenger" depart="267.29" departLane="best" from="52348254#2" to="8099705#3"/>
    <trip id="veh195" type="veh_passenger" depart="268.67" departLane="best" from="7666193#0" to="9874866#3"/>
    <trip id="veh196" type="veh_passenger" depart="270.05" departLane="best" from="6277222" to="98711574#0"/>
    <trip id="veh197" type="veh_passenger" depart="271.43" departLane="best" from="800130448#0" to="52092244"/>
    <trip id="veh198" type="veh_passenger" depart="272.80" departLane="best" from="95512937#0" to="7724671"/>
    <trip id="veh199" type="veh_passenger" depart="274.18" departLane="best" from="463089659#0" to="6277218#0"/>
    <trip id="veh200" type="veh_passenger" depart="275.56" departLane="best" from="8099709#0" to="52361597#3"/>
    <trip id="veh201" type="veh_passenger" depart="276.94" departLane="best" from="707024131#0" to="447271371#3"/>
    <trip id="veh202" type="veh_passenger" depart="278.31" departLane="best" from="154012610#0" to="447710246"/>
    <trip id="veh203" type="veh_passenger" depart="279.69" departLane="best" from="4704763#5" to="4704753"/>
    <trip id="veh204" type="veh_passenger" depart="281.07" departLane="best" from="447271375" to="7666163#0"/>
    <trip id="veh205" type="veh_passenger" depart="282.45" departLane="best" from="7970445#1" to="11993601#0"/>
    <trip id="veh206" type="veh_passenger" depart="283.83" departLane="best" departSpeed="max" from="497484170" to="608162931"/>
    <trip id="veh207" type="veh_passenger" depart="285.20" departLane="best" from="5011424#0" to="314809207#2"/>
    <trip id="veh208" type="veh_passenger" depart="286.58" departLane="best" from="5011435#0" to="95512944#2"/>
    <trip id="veh209" type="veh_passenger" depart="287.96" departLane="best" departSpeed="max" from="6277202" to="7666163#3"/>
    <trip id="veh210" type="veh_passenger" depart="289.34" departLane="best" departSpeed="max" from="9286410#0" to="7994906#0"/>
    <trip id="veh211" type="veh_passenger" depart="290.71" departLane="best" from="4890122#2" to="-497484170"/>
    <trip id="veh212" type="veh_passenger" depart="292.09" departLane="best" departSpeed="max" from="4890110#0" to="7970445#1"/>
    <trip id="veh213" type="veh_passenger" depart="293.47" departLane="best" departSpeed="max" from="9286410#0" to="98711574#1"/>
    <trip id="veh215" type="veh_passenger" depart="296.23" departLane="best" from="61044540" to="625169864#0"/>
    <trip id="veh216" type="veh_passenger" depart="297.60" departLane="best" from="447271371#0" to="319005198"/>
    <trip id="veh217" type="veh_passenger" depart="298.98" departLane="best" departSpeed="max" from="5098774#0" to="-97020724#3"/>
    <trip id="veh218" type="veh_passenger" depart="300.36" departLane="best" from="4826231#0" to="707024131#0"/>
    <trip id="veh219" type="veh_passenger" depart="301.74" departLane="best" from="4890126#2" to="20855254#0"/>
    <trip id="veh221" type="veh_passenger" depart="304.49" departLane="best" from="-98711555#1" to="6277224#0"/>
    <trip id="veh222" type="veh_passenger" depart="305.87" departLane="best" from="211290865#0" to="5011435#0"/>
    <trip id="veh223" type="veh_passenger" depart="307.25" departLane="best" departSpeed="max" from="10163321" to="4808269#4"/>
    <trip id="veh224" type="veh_passenger" depart="308.63" departLane="best" departSpeed="max" from="447171439#0" to="4704763#0"/>
    <trip id="veh225" type="veh_passenger" depart="310.00" departLane="best" from="8099705#3" to="4808269#4"/>
    <trip id="veh226" type="veh_passenger" depart="311.38" departLane="best" from="8099700#8" to="8102634#0"/>
    <trip id="veh227" type="veh_passenger" depart="312.76" departLane="best" from="463089663#0" to="16360341"/>
    <trip id="veh228" type="veh_passenger" depart="314.14" departLane="best" from="-94124274#1" to="60432357#0"/>
    <trip id="veh229" type="veh_passenger" depart="315.52" departLane="best" from="99093093#3" to="4758624#0"/>
    <trip id="veh230" type="veh_passenger" depart="316.89" departLane="best" from="7666172#0" to="8099700#11"/>
    <trip id="veh231" type="veh_passenger" depart="318.27" departLane="best" from="7666174#0" to="7970445#1"/>
    <trip id="veh232" type="veh_passenger" depart="319.65" departLane="best" from="98711532#8" to="314809207#2"/>
    <trip id="veh233" type="veh_passenger" depart="321.03" departLane="best" from="-965741022" to="20855254#0"/>
    <trip id="veh234" type="veh_passenger" depart="322.40" departLane="best" departSpeed="max" from="211248470#0" to="669328123#2"/>
    <trip id="veh236" type="veh_passenger" depart="325.16" departLane="best" from="7970445#0" to="800130446#0"/>
    <trip id="veh237" type="veh_passenger" depart="326.54" departLane="best" departSpeed="max" from="319005196#0" to="627037403"/>
    <trip id="veh238" type="veh_passenger" depart="327.92" departLane="best" from="8099700#13" to="191617371#0"/>
    <trip id="veh239" type="veh_passenger" depart="329.29" departLane="best" from="829325367" to="98711574#12"/>
    <trip id="veh240" type="veh_passenger" depart="330.67" departLane="best" departSpeed="max" from="211248470#0" to="-965741022"/>
    <trip id="veh241" type="veh_passenger" depart="332.05" departLane="best" from="4808250#4" to="707024131#0"/>
    <trip id="veh242" type="veh_passenger" depart="333.43" departLane="best" from="98711556" to="4826229#0"/>
    <trip id="veh243" type="veh_passenger" depart="334.80" departLane="best" from="7994896#0" to="16360341"/>
    <trip id="veh244" type="veh_passenger" depart="336.18" departLane="best" from="7724665#0" to="6277204#0"/>
    <trip id="veh245" type="veh_passenger" depart="337.56" departLane="best" departSpeed="max" from="211248470#0" to="8049790#0"/>
    <trip id="veh246" type="veh_passenger" depart="338.94" departLane="best" departSpeed="max" from="9281420#0" to="624442658#0"/>
    <trip id="veh247" type="veh_passenger" depart="340.32" departLane="best" departSpeed="max" from="211248470#0" to="98711574#6"/>
    <trip id="veh248" type="veh_passenger" depart="341.69" departLane="best" from="8102615#0" to="4758623#1"/>
    <trip id="veh249" type="veh_passenger" depart="343.07" departLane="best" departSpeed="max" from="5073109#0" to="4808250#4"/>
    <trip id="veh251" type="veh_passenger" depart="345.83" departLane="best" departSpeed="max" from="9281420#0" to="8102615#1"/>
    <trip id="veh252" type="veh_passenger" depart="347.20" departLane="best" departSpeed="max" from="211248470#0" to="98711574#12"/>
    <trip id="veh253" type="veh_passenger" depart="348.58" departLane="best" departSpeed="max" from="721219459#0" to="8102629#0"/>
    <trip id="veh254" type="veh_passenger" depart="349.96" departLane="best" from="7970449#0" to="4890124#2"/>
    <trip id="veh255" type="veh_passenger" depart="351.34" departLane="best" departSpeed="max" from="8099700#0" to="98711574#12"/>
    <trip id="veh256" type="veh_passenger" depart="352.72" departLane="best" from="4704763#10" to="8102596#1"/>
    <trip id="veh257" type="veh_passenger" depart="354.09" departLane="best" from="61044485#2" to="5098777#0"/>
    <trip id="veh258" type="veh_passenger" depart="355.47" departLane="best" departSpeed="max" from="5098774#0" to="770904166#0"/>
    <trip id="veh259" type="veh_passenger" depart="356.85" departLane="best" from="4704763#10" to="833815194#0"/>
    <trip id="veh260" type="veh_passenger" depart="358.23" departLane="best" from="8811243" to="16360344"/>
    <trip id="veh261" type="veh_passenger" depart="359.60" departLane="best" from="94124278" to="41397536"/>
    <trip id="veh262" type="veh_passenger" depart="360.98" departLane="best" departSpeed="max" from="52361591#0" to="627037403"/>
    <trip id="veh263" type="veh_passenger" depart="362.36" departLane="best" from="4890122#1" to="-97020724#1"/>
    <trip id="veh264" type="veh_passenger" depart="363.74" departLane="best" departSpeed="max" from="9281420#0" to="213141909#0"/>
    <trip id="veh266" type="veh_passenger" depart="366.49" departLane="best" from="488770041#0" to="95512934#0"/>
    <trip id="veh267" type="veh_passenger" depart="367.87" departLane="best" from="7970445#0" to="447271371#6"/>
    <trip id="veh268" type="veh_passenger" depart="369.25" departLane="best" from="-61044481#1" to="98711574#0"/>
    <trip id="veh269" type="veh_passenger" depart="370.63" departLane="best" from="187017776#0" to="7666193#0"/>