<?xml version="1.0" encoding="UTF-8"?>

<!-- generated on 2022-07-07 10:42:55 by Eclipse SUMO duarouter Version 1.13.0
<configuration xmlns:xsi="http://www.w3.org/2001/XMLSchema-instance" xsi:noNamespaceSchemaLocation="http://sumo.dlr.de/xsd/duarouterConfiguration.xsd">

    <input>
        <net-file value="/home/mickael/Sumo/2022-07-07-10-42-44/osm.net.xml"/>
        <route-files value="/home/mickael/Sumo/2022-07-07-10-42-44/osm.passenger.trips.xml"/>
    </input>

    <output>
        <output-file value="/home/mickael/Sumo/2022-07-07-10-42-44/osm.passenger.trips.xml.tmp"/>
        <write-trips value="true"/>
    </output>

    <time>
        <begin value="0"/>
        <end value="3600"/>
    </time>

    <report>
        <no-warnings value="true"/>
        <ignore-errors value="true"/>
        <no-step-log value="true"/>
    </report>

</configuration>
-->

<routes xmlns:xsi="http://www.w3.org/2001/XMLSchema-instance" xsi:noNamespaceSchemaLocation="http://sumo.dlr.de/xsd/routes_file.xsd">
    <vType id="passenger" vClass="passenger"/>
    <vType id="rescue" vClass="emergency" speedFactor="1.5">
        <param key="has.bluelight.device" value="true"/>
    </vType>
    <trip id="1" type="passenger" depart="0.96" departLane="best" departSpeed="max" from="52361608#0" to="4758624#1"/>
    <trip id="2" type="passenger" depart="1.92" departLane="best" from="822911497" to="1000578836"/>
    <trip id="3" type="passenger" depart="2.87" departLane="best" from="23539795#5" to="-479599358"/>
    <trip id="4" type="passenger" depart="3.83" departLane="best" from="13470142#1" to="23539795#5"/>
    <trip id="5" type="passenger" depart="4.79" departLane="best" from="-94124274#1" to="12262756#1"/>
    <trip id="6" type="passenger" depart="5.75" departLane="best" from="4823219#0" to="23540357#1"/>
    <trip id="7" type="passenger" depart="6.71" departLane="best" from="191904979#0" to="114102534#2"/>
    <trip id="8" type="passenger" depart="7.66" departLane="best" from="95512944#1" to="176260048"/>
    <trip id="10" type="passenger" depart="9.58" departLane="best" from="722971166#3" to="41056268#2"/>
    <trip id="11" type="passenger" depart="10.0" departLane="best" from="289656995#3" to="97020724#2"/>
    <trip id="12" type="passenger" depart="10.0" departLane="best" from="217952211#0" to="23550015"/>
    <trip id="13" type="passenger" depart="10.0" departLane="best" from="722012621" to="41397532#1"/>
    <trip id="14" type="passenger" depart="10.0" departLane="best" from="737256867" to="289656995#0"/>
    <trip id="15" type="passenger" depart="10.0" departLane="best" from="52361586#0" to="-98711555#1"/>
    <trip id="16" type="passenger" depart="10.0" departLane="best" from="13754322#0" to="13838444#1"/>
    <trip id="17" type="passenger" depart="10.0" departLane="best" from="114102529#0" to="13754322#2"/>
    <trip id="18" type="passenger" depart="10.0" departLane="best" from="4758624#4" to="191617371#10"/>
    <trip id="19" type="passenger" depart="10.0" departLane="best" from="212738032#0" to="12268687#4"/>
    <trip id="20" type="passenger" depart="10.0" departLane="best" from="142800771#0" to="94124274#0"/>
    <trip id="21" type="passenger" depart="10.0" departLane="best" from="4823218#0" to="41056270"/>
    <trip id="22" type="passenger" depart="10.0" departLane="best" from="12268690#1" to="5073108#4"/>
    <trip id="23" type="passenger" depart="10.0" departLane="best" from="12268689#2" to="191617371#10"/>
    <trip id="24" type="passenger" depart="10.0" departLane="best" departSpeed="max" from="9863968" to="447271371#0"/>
    <trip id="25" type="passenger" depart="10.0" departLane="best" from="41056268#4" to="4823216"/>
    <trip id="26" type="passenger" depart="10.0" departLane="best" departSpeed="max" from="722971166#0" to="52361591#0"/>
    <trip id="27" type="passenger" depart="10.0" departLane="best" from="13754322#1" to="-479599358"/>
    <trip id="28" type="passenger" depart="10.0" departLane="best" from="13470132" to="94131913#7"/>
    <trip id="30" type="passenger" depart="10.0" departLane="best" from="488462565#0" to="191617371#8"/>
    <trip id="31" type="passenger" depart="10.0" departLane="best" from="94124274#0" to="211244251"/>
    <trip id="32" type="passenger" depart="10.0" departLane="best" from="142794136#0" to="13470116"/>
    <trip id="33" type="passenger" depart="10.0" departLane="best" from="41056271#0" to="13470134#2"/>
    <trip id="34" type="passenger" depart="10.0" departLane="best" from="41397538#0" to="769462300#1"/>
    <trip id="35" type="passenger" depart="10.0" departLane="best" from="217952213-AddedOffRampEdge" to="12268690#0"/>
    <trip id="37" type="passenger" depart="10.0" departLane="best" from="1030007306" to="-98711555#1"/>
    <trip id="39" type="passenger" depart="10.0" departLane="best" from="658610291#0" to="200487047#1"/>
    <trip id="40" type="passenger" depart="10.0" departLane="best" from="1000578834" to="191617371#3"/>
    <trip id="41" type="passenger" depart="10.0" departLane="best" departSpeed="max" from="9863968" to="23539807#2"/>
    <trip id="42" type="passenger" depart="10.0" departLane="best" from="97020724#2" to="722005717#1"/>
    <trip id="43" type="passenger" depart="10.0" departLane="best" departSpeed="max" from="-223964218" to="5011434#0"/>
    <trip id="44" type="passenger" depart="10.0" departLane="best" from="5073114#2" to="23539815#1"/>
    <trip id="45" type="passenger" depart="10.0" departLane="best" from="142800771#0" to="447271371#0"/>
    <trip id="47" type="passenger" depart="10.0" departLane="best" from="23539813#1" to="95512944#0"/>
    <trip id="49" type="passenger" depart="10.0" departLane="best" from="909342635#1" to="722005717#2"/>
    <trip id="50" type="passenger" depart="10.0" departLane="best" from="191182729#8" to="446490805#0"/>
    <trip id="51" type="passenger" depart="10.0" departLane="best" from="447271375" to="114102534#2"/>
    <trip id="52" type="passenger" depart="10.0" departLane="best" from="61044487#0" to="23539817#0"/>
    <trip id="53" type="passenger" depart="10.0" departLane="best" from="625596130#2" to="23539807#2"/>
    <trip id="54" type="passenger" depart="10.0" departLane="best" from="-12378356#2" to="142802046"/>
    <trip id="56" type="passenger" depart="10.0" departLane="best" from="191617371#0-AddedOffRampEdge" to="1000576328"/>
    <trip id="57" type="passenger" depart="10.0" departLane="best" from="1000578836" to="52348254#0"/>
    <trip id="58" type="passenger" depart="10.0" departLane="best" from="61044488" to="114102529#3"/>
    <trip id="59" type="passenger" depart="10.0" departLane="best" from="142800769" to="722005717#3"/>
    <trip id="60" type="passenger" depart="10.0" departLane="best" from="23539795#5" to="12268689#0"/>
    <trip id="61" type="passenger" depart="10.0" departLane="best" from="319005196#0" to="5073108#5"/>
    <trip id="62" type="passenger" depart="10.0" departLane="best" departSpeed="max" from="9863968" to="447271375"/>
    <trip id="63" type="passenger" depart="10.0" departLane="best" from="116822301#2" to="12359021"/>
    <trip id="64" type="passenger" depart="10.0" departLane="best" from="191617373#0" to="290242676"/>
    <trip id="65" type="passenger" depart="10.0" departLane="best" from="13754322#2" to="12268690#0"/>
    <trip id="66" type="passenger" depart="10.0" departLane="best" from="1000578836" to="41397538#0"/>
    <trip id="67" type="passenger" depart="10.0" departLane="best" from="13754322#1" to="810730425#0"/>
    <trip id="68" type="passenger" depart="10.0" departLane="best" from="723001380#2" to="1000578829"/>
    <trip id="70" type="passenger" depart="10.0" departLane="best" from="13470139" to="114102534#0"/>
    <trip id="71" type="passenger" depart="10.0" departLane="best" from="94131913#3-AddedOnRampEdge" to="23557404#5"/>
    <trip id="72" type="passenger" depart="10.0" departLane="best" from="23540360" to="52361600"/>
    <trip id="73" type="passenger" depart="10.0" departLane="best" from="114102521#2" to="200487052#2"/>
    <trip id="74" type="passenger" depart="10.0" departLane="best" from="23539796#0" to="211248470#2"/>
    <trip id="75" type="passenger" depart="10.0" departLane="best" from="737256867" to="13470119#2"/>
    <trip id="76" type="passenger" depart="10.0" departLane="best" from="12462256#1" to="200487052#2-AddedOnRampEdge"/>
    <trip id="77" type="passenger" depart="10.0" departLane="best" from="23539795#5" to="13754322#2"/>
    <trip id="78" type="passenger" depart="10.0" departLane="best" from="13838446" to="909342635#0"/>
    <trip id="79" type="passenger" depart="10.0" departLane="best" from="23539806#3" to="722005717#1"/>
    <trip id="80" type="passenger" depart="10.0" departLane="best" from="41056268#0" to="1000576320"/>
    <trip id="82" type="passenger" depart="10.0" departLane="best" from="97020724#0" to="909342635#0"/>
    <trip id="83" type="passenger" depart="10.0" departLane="best" from="722971166#3" to="11676063#2"/>
    <trip id="84" type="passenger" depart="10.0" departLane="best" departSpeed="max" from="223964215" to="1000576330"/>
    <trip id="85" type="passenger" depart="10.0" departLane="best" from="217952211#0" to="9874866#3"/>
    <trip id="86" type="passenger" depart="10.0" departLane="best" from="142800769" to="52361600"/>
    <trip id="87" type="passenger" depart="10.0" departLane="best" from="23539814" to="200487047#2"/>
    <trip id="88" type="passenger" depart="10.0" departLane="best" from="95512944#1" to="9874866#3"/>
    <trip id="89" type="passenger" depart="10.0" departLane="best" from="41056268#2" to="5002133#0"/>
    <trip id="90" type="passenger" depart="10.0" departLane="best" from="12268687#4" to="13838447#5"/>
    <trip id="91" type="passenger" depart="10.0" departLane="best" from="97020722" to="289656995#0"/>
    <trip id="92" type="passenger" depart="10.0" departLane="best" from="319005197#0" to="5073114#1"/>
    <trip id="93" type="passenger" depart="10.0" departLane="best" from="1000578832#0-AddedOnRampEdge" to="289656995#2-AddedOffRampEdge"/>
    <trip id="94" type="passenger" depart="10.0" departLane="best" departSpeed="max" from="23557375#0" to="707024131#0"/>
    <trip id="95" type="passenger" depart="10.0" departLane="best" from="12268687#4" to="95512944#1"/>
    <trip id="96" type="passenger" depart="10.0" departLane="best" from="1019520419" to="12183693#1-AddedOffRampEdge"/>
    <trip id="97" type="passenger" depart="10.0" departLane="best" from="13762512#2" to="1061908879#0"/>
    <trip id="98" type="passenger" depart="10.0" departLane="best" from="447271371#0" to="41397532#1"/>
    <trip id="99" type="passenger" depart="10.0" departLane="best" from="23539795#4" to="289656995#2-AddedOffRampEdge"/>
    <trip id="100" type="passenger" depart="10.0" departLane="best" from="23557428#1" to="91862697"/>
    <trip id="0" type="rescue" depart="10.00" departLane="best" from="1030007306" to="12268690#1"/>
    <trip id="101" type="passenger" depart="10.0" departLane="best" from="13470122" to="5002133#0"/>
    <trip id="102" type="passenger" depart="10.0" departLane="best" from="5073111#2" to="13838447#5"/>
    <trip id="103" type="passenger" depart="10.0" departLane="best" from="191617371#1" to="5073115#3"/>
    <trip id="104" type="passenger" depart="10.0" departLane="best" from="1000578837#2" to="211244251"/>
    <trip id="105" type="passenger" depart="10" departLane="best" from="1000578837#2" to="12268689#2"/>
    <trip id="106" type="passenger" depart="10" departLane="best" from="142800769" to="909342635#1"/>
    <trip id="108" type="passenger" depart="10" departLane="best" from="212738032#0" to="11676063#1"/>
    <trip id="109" type="passenger" depart="10" departLane="best" departSpeed="max" from="722971166#0" to="4890108#0"/>
    <trip id="110" type="passenger" depart="10" departLane="best" from="4704753" to="9874866#3"/>
    <trip id="111" type="passenger" depart="10" departLane="best" from="488462565#0" to="-12378356#0"/>
    <trip id="112" type="passenger" depart="10" departLane="best" from="722005717#1" to="13838447#5"/>
    <trip id="113" type="passenger" depart="10" departLane="best" from="12183693#2" to="1030007306"/>
    <trip id="114" type="passenger" depart="10" departLane="best" from="114102534#0" to="23550016#0"/>
    <trip id="115" type="passenger" depart="10" departLane="best" from="16360340" to="41056268#2"/>
    <trip id="116" type="passenger" depart="10" departLane="best" departSpeed="max" from="52361597#0" to="12268687#0"/>
    <trip id="117" type="passenger" depart="10" departLane="best" from="23557355#0" to="810730425#0"/>
    <trip id="118" type="passenger" depart="10" departLane="best" departSpeed="max" from="722971166#0" to="1000578839#1"/>
    <trip id="119" type="passenger" depart="10" departLane="best" from="23539796#0" to="13754322#1"/>
    <trip id="121" type="passenger" depart="10" departLane="best" from="52391671#1" to="23550015"/>
    <trip id="122" type="passenger" depart="10" departLane="best" from="1000578837#3" to="723001380#2"/>
    <trip id="123" type="passenger" depart="10" departLane="best" from="909342635#0" to="23540357#1"/>
    <trip id="124" type="passenger" depart="10" departLane="best" departSpeed="max" from="722971166#0" to="289656995#2-AddedOffRampEdge"/>
    <trip id="125" type="passenger" depart="10" departLane="best" from="12262757" to="114102529#3"/>
    <trip id="126" type="passenger" depart="10" departLane="best" from="191617371#0-AddedOffRampEdge" to="769462300#1"/>
    <trip id="127" type="passenger" depart="10" departLane="best" from="707024130#0" to="722005717#1"/>
    <trip id="128" type="passenger" depart="10" departLane="best" from="909342635#0" to="12268687#4"/>
    <trip id="129" type="passenger" depart="10" departLane="best" from="13838446" to="1027474076#1"/>
    <trip id="130" type="passenger" depart="10" departLane="best" from="627244207" to="730691226"/>
    <trip id="131" type="passenger" depart="10" departLane="best" from="223964216" to="41397536"/>
    <trip id="132" type="passenger" depart="10" departLane="best" from="12268687#4" to="909342635#1"/>
    <trip id="133" type="passenger" depart="10" departLane="best" from="769462300#0" to="97020726#2"/>
    <trip id="134" type="passenger" depart="10" departLane="best" from="-94124274#1" to="5073110#2"/>
    <trip id="136" type="passenger" depart="10" departLane="best" from="707024131#0" to="722005717#1"/>
    <trip id="137" type="passenger" depart="10" departLane="best" from="721976347" to="13470140#5"/>
    <trip id="138" type="passenger" depart="10" departLane="best" from="769462300#1" to="721976346#3"/>
    <trip id="140" type="passenger" depart="10" departLane="best" departSpeed="max" from="23539815#0" to="13839702#2"/>
    <trip id="141" type="passenger" depart="10" departLane="best" from="707024130#0" to="12359021"/>
    <trip id="142" type="passenger" depart="10" departLane="best" departSpeed="max" from="-91862697" to="12183693#6-AddedOffRampEdge"/>
    <trip id="143" type="passenger" depart="10" departLane="best" from="191617371#5" to="722005717#1"/>
    <trip id="144" type="passenger" depart="10" departLane="best" from="97020722" to="13754323#0"/>
    <trip id="146" type="passenger" depart="10" departLane="best" from="94131913#7" to="1030007306"/>
    <trip id="147" type="passenger" depart="10" departLane="best" from="97020724#0" to="116822285#1"/>
    <trip id="148" type="passenger" depart="10" departLane="best" from="95512944#2" to="13470140#2"/>
    <trip id="150" type="passenger" depart="10" departLane="best" from="52361597#4" to="142794131#0"/>
    <trip id="151" type="passenger" depart="10" departLane="best" from="447271375" to="23539796#5"/>
    <trip id="152" type="passenger" depart="10" departLane="best" departSpeed="max" from="217952213" to="23557430"/>
    <trip id="153" type="passenger" depart="10" departLane="best" from="13838447#3" to="4890108#0"/>
    <trip id="154" type="passenger" depart="10" departLane="best" from="-142800769" to="909342635#0"/>
    <trip id="155" type="passenger" depart="10" departLane="best" from="290242676" to="5002133#0"/>
    <trip id="156" type="passenger" depart="10" departLane="best" from="52391672#0" to="4758623#1"/>
    <trip id="157" type="passenger" depart="10" departLane="best" from="211248470#2" to="1000578829"/>
    <trip id="158" type="passenger" depart="10" departLane="best" from="5073109#3" to="16360341"/>
    <trip id="159" type="passenger" depart="10" departLane="best" from="191617371#1" to="707024131#0"/>
    <trip id="160" type="passenger" depart="10" departLane="best" from="191617371#0-AddedOffRampEdge" to="191715080#0"/>
    <trip id="161" type="passenger" depart="10" departLane="best" departSpeed="max" from="223964215" to="13838447#3"/>
    <trip id="162" type="passenger" depart="10" departLane="best" from="117809805#0" to="191904991"/>
    <trip id="163" type="passenger" depart="10" departLane="best" from="94131913#9" to="4758624#1"/>
    <trip id="164" type="passenger" depart="10" departLane="best" from="191182729#9" to="23540360"/>
    <trip id="165" type="passenger" depart="10" departLane="best" from="-12378356#2" to="13762513#2"/>
    <trip id="166" type="passenger" depart="10" departLane="best" from="23539798#0" to="289656995#2"/>
    <trip id="167" type="passenger" depart="10" departLane="best" from="23539806#3" to="12268689#2"/>
    <trip id="168" type="passenger" depart="10" departLane="best" from="23540360" to="769462300#1"/>
    <trip id="169" type="passenger" depart="10" departLane="best" from="707024130#0" to="11676063#2"/>
    <trip id="170" type="passenger" depart="10" departLane="best" from="1027474077" to="23539801#0"/>
    <trip id="171" type="passenger" depart="10" departLane="best" from="722005717#2" to="5073115#0"/>
    <trip id="172" type="passenger" depart="10" departLane="best" from="5073112#0" to="12359021"/>
    <trip id="173" type="passenger" depart="10" departLane="best" from="13470119#2" to="-23557428#0"/>
    <trip id="174" type="passenger" depart="10" departLane="best" departSpeed="max" from="13838444#0" to="21514684"/>
    <trip id="175" type="passenger" depart="10" departLane="best" departSpeed="max" from="723001380#0" to="1000578832#0"/>
    <trip id="176" type="passenger" depart="10" departLane="best" from="23539795#0" to="41397537#2"/>
    <trip id="177" type="passenger" depart="10" departLane="best" from="13470114" to="488462565#0"/>
    <trip id="178" type="passenger" depart="10" departLane="best" departSpeed="max" from="23557359" to="13470112"/>
    <trip id="179" type="passenger" depart="10" departLane="best" from="488462565#0" to="-12378356#0"/>
    <trip id="180" type="passenger" depart="10" departLane="best" from="52394710" to="52348258"/>
    <trip id="181" type="passenger" depart="10" departLane="best" from="114102534#0" to="200487052#0"/>
    <trip id="182" type="passenger" depart="10" departLane="best" from="12359023#3" to="95512944#0"/>
    <trip id="183" type="passenger" depart="10" departLane="best" departSpeed="max" from="23557405#0" to="1000576320"/>
    <trip id="184" type="passenger" depart="10" departLane="best" from="13838445#1" to="707024131#0"/>
    <trip id="185" type="passenger" depart="10" departLane="best" departSpeed="max" from="23539815#0" to="52394709#5"/>
    <trip id="186" type="passenger" depart="10" departLane="best" from="5073110#0" to="9874866#3"/>
    <trip id="187" type="passenger" depart="10" departLane="best" from="822911497" to="41056273#0"/>
    <trip id="188" type="passenger" depart="10" departLane="best" departSpeed="max" from="52361597#0" to="23539795#5"/>
    <trip id="189" type="passenger" depart="10" departLane="best" departSpeed="max" from="722971166#0" to="23540360"/>
    <trip id="190" type="passenger" depart="10" departLane="best" from="823356688#2" to="5073113#0"/>
    <trip id="191" type="passenger" depart="10" departLane="best" from="23540365#2" to="13470130#0"/>
    <trip id="192" type="passenger" depart="10" departLane="best" from="13838444#1" to="446490802#0"/>
    <trip id="193" type="passenger" depart="10" departLane="best" from="61044488" to="23539806#0"/>
    <trip id="194" type="passenger" depart="10" departLane="best" from="16360340" to="142800771#2"/>
    <trip id="195" type="passenger" depart="10" departLane="best" from="319005196#1" to="114102534#2"/>
    <trip id="196" type="passenger" depart="10" departLane="best" from="13754323#0" to="4826231#0"/>
    <trip id="198" type="passenger" depart="10" departLane="best" departSpeed="max" from="223964217" to="23539819#2"/>
    <trip id="199" type="passenger" depart="10" departLane="best" from="23539795#1" to="12268687#4"/>
    <trip id="200" type="passenger" depart="10" departLane="best" from="23539795#4" to="810730425#0"/>
    <trip id="201" type="passenger" depart="10" departLane="best" from="41397538#0" to="488462565#0"/>
    <trip id="202" type="passenger" depart="10" departLane="best" from="723001380#0-AddedOffRampEdge" to="52348256#0"/>
    <trip id="203" type="passenger" depart="10" departLane="best" from="217952211#2" to="-12378356#0"/>
    <trip id="205" type="passenger" depart="10" departLane="best" departSpeed="max" from="723001380#0" to="95512944#0"/>
    <trip id="206" type="passenger" depart="10" departLane="best" from="23539795#4" to="5073114#1"/>
    <trip id="207" type="passenger" depart="10" departLane="best" from="321616099" to="41056268#1"/>
    <trip id="208" type="passenger" depart="10" departLane="best" from="13470142#3" to="12268690#0"/>
    <trip id="209" type="passenger" depart="200.20" departLane="best" from="23539802" to="-479599358"/>
    <trip id="211" type="passenger" depart="202.11" departLane="best" departSpeed="max" from="223964215" to="11676063#2"/>
    <trip id="212" type="passenger" depart="203.07" departLane="best" from="23539819#2" to="114102529#3"/>
    <trip id="213" type="passenger" depart="204.03" departLane="best" from="4758623#0" to="-23557428#2"/>
    <trip id="214" type="passenger" depart="204.99" departLane="best" departSpeed="max" from="217952213" to="23557368"/>
    <trip id="215" type="passenger" depart="205.95" departLane="best" from="-97020724#1" to="447271371#0"/>
    <trip id="216" type="passenger" depart="206.90" departLane="best" from="12183693#3" to="211244251"/>
    <trip id="217" type="passenger" depart="207.86" departLane="best" from="13470134#1" to="153650004"/>
    <trip id="218" type="passenger" depart="208.82" departLane="best" from="52394714#7" to="191617371#10"/>
    <trip id="219" type="passenger" depart="209.78" departLane="best" from="52394712#0" to="627258484#0"/>
    <trip id="220" type="passenger" depart="210.74" departLane="best" from="13838447#1" to="1000578835"/>
    <trip id="221" type="passenger" depart="211.69" departLane="best" departSpeed="max" from="-91862697" to="23539817#0"/>
    <trip id="223" type="passenger" depart="213.61" departLane="best" from="95512937#2" to="12262756#1"/>
    <trip id="224" type="passenger" depart="214.57" departLane="best" departSpeed="max" from="-91862697" to="114102534#2"/>
    <trip id="226" type="passenger" depart="216.48" departLane="best" from="52348256#0" to="52348258"/>
    <trip id="227" type="passenger" depart="217.44" departLane="best" from="12268690#0" to="41056268#4"/>
    <trip id="228" type="passenger" depart="218.40" departLane="best" from="52394709#4" to="1030007306"/>
    <trip id="229" type="passenger" depart="219.36" departLane="best" from="722005717#2" to="95512944#2"/>
    <trip id="230" type="passenger" depart="220.31" departLane="best" from="95512944#1" to="191617371#8"/>
    <trip id="231" type="passenger" depart="221.27" departLane="best" departSpeed="max" from="52361597#0" to="1000578832#2"/>
    <trip id="232" type="passenger" depart="222.23" departLane="best" from="52348250#0" to="41397537#1"/>
    <trip id="233" type="passenger" depart="223.19" departLane="best" from="114102529#3" to="52348263#1"/>
    <trip id="234" type="passenger" depart="224.15" departLane="best" departSpeed="max" from="723001380#0" to="41056268#1"/>
    <trip id="235" type="passenger" depart="225.10" departLane="best" from="116822301#2" to="9874866#0"/>
    <trip id="236" type="passenger" depart="226.06" departLane="best" from="627258484#0" to="191617371#0"/>
    <trip id="237" type="passenger" depart="227.02" departLane="best" from="23539796#5" to="191617371#10"/>
    <trip id="238" type="passenger" depart="227.98" departLane="best" from="722971166#3" to="625596130#0"/>
    <trip id="239" type="passenger" depart="228.94" departLane="best" from="114102530#0" to="95512944#1"/>
    <trip id="240" type="passenger" depart="229.89" departLane="best" from="4758624#4" to="625596130#2"/>
    <trip id="241" type="passenger" depart="230.85" departLane="best" departSpeed="max" from="52361597#0" to="200487052#2"/>
    <trip id="242" type="passenger" depart="231.81" departLane="best" departSpeed="max" from="52361608#0" to="95512944#2"/>
    <trip id="244" type="passenger" depart="233.73" departLane="best" from="290242676" to="217952211#4"/>
    <trip id="245" type="passenger" depart="234.68" departLane="best" from="23539802" to="5073109#0"/>
    <trip id="246" type="passenger" depart="235.64" departLane="best" from="142800771#2" to="707024131#0"/>
    <trip id="247" type="passenger" depart="236.60" departLane="best" departSpeed="max" from="722971166#0" to="1000578836"/>
    <trip id="249" type="passenger" depart="238.51" departLane="best" from="23539817#1" to="41056271#0"/>
    <trip id="250" type="passenger" depart="239.47" departLane="best" from="217952211#0" to="-479599358"/>
    <trip id="251" type="passenger" depart="240.43" departLane="best" departSpeed="max" from="723001380#0" to="117809805#0"/>
    <trip id="252" type="passenger" depart="241.39" departLane="best" from="13470134#1" to="52394709#2"/>
    <trip id="254" type="passenger" depart="243.30" departLane="best" departSpeed="max" from="-223964218" to="95512937#0"/>
    <trip id="255" type="passenger" depart="244.26" departLane="best" from="1027474077" to="5002133#0"/>
    <trip id="256" type="passenger" depart="245.22" departLane="best" from="23557355#0" to="52348250#1"/>
    <trip id="257" type="passenger" depart="246.18" departLane="best" from="52348250#0" to="447271371#3"/>
    <trip id="258" type="passenger" depart="247.14" departLane="best" departSpeed="max" from="23557359" to="52391674#0"/>
    <trip id="259" type="passenger" depart="248.09" departLane="best" from="1030007306" to="12268690#1"/>
    <trip id="260" type="passenger" depart="249.05" departLane="best" from="52348250#1" to="13839702#2"/>
    <trip id="261" type="passenger" depart="250.01" departLane="best" from="41397537#2" to="212738032#0"/>
    <trip id="262" type="passenger" depart="250.97" departLane="best" from="289656995#2" to="200487052#0"/>
    <trip id="263" type="passenger" depart="251.93" departLane="best" from="52394709#2" to="16360341"/>
    <trip id="264" type="passenger" depart="252.88" departLane="best" from="13838447#0" to="114102521#0"/>
    <trip id="265" type="passenger" depart="253.84" departLane="best" from="13470109#1" to="1061908879#0"/>
    <trip id="266" type="passenger" depart="254.80" departLane="best" from="289656995#3" to="52348255#0"/>
    <trip id="267" type="passenger" depart="255.76" departLane="best" from="12462252#0" to="12268689#2"/>
    <trip id="268" type="passenger" depart="256.71" departLane="best" from="23557352#2" to="5011434#0"/>
    <trip id="269" type="passenger" depart="257.67" departLane="best" departSpeed="max" from="97020726#0" to="23539806#3"/>
    <trip id="270" type="passenger" depart="258.63" departLane="best" departSpeed="max" from="191182729#0" to="1027474076#1"/>
    <trip id="271" type="passenger" depart="259.59" departLane="best" from="13470114" to="12359021"/>
    <trip id="272" type="passenger" depart="260.55" departLane="best" departSpeed="max" from="12378356#0" to="-223964215"/>
    <trip id="273" type="passenger" depart="261.50" departLane="best" from="289656995#2-AddedOffRampEdge" to="13470143#6"/>
    <trip id="274" type="passenger" depart="262.46" departLane="best" departSpeed="max" from="97020726#0" to="23550016#2"/>
    <trip id="275" type="passenger" depart="263.42" departLane="best" from="769462300#0" to="223964218"/>
    <trip id="276" type="passenger" depart="264.38" departLane="best" from="769462300#1" to="23557428#1"/>
    <trip id="277" type="passenger" depart="265.34" departLane="best" from="23540357#0" to="200487052#2"/>
    <trip id="278" type="passenger" depart="266.29" departLane="best" from="12378356#1" to="1000576322"/>
    <trip id="279" type="passenger" depart="267.25" departLane="best" from="94131913#9-AddedOffRampEdge" to="21514692"/>
    <trip id="280" type="passenger" depart="268.21" departLane="best" from="722005717#2" to="191617373#0"/>
    <trip id="281" type="passenger" depart="269.17" departLane="best" from="1000578837#3" to="41397537#2"/>
    <trip id="282" type="passenger" depart="270.13" departLane="best" from="1000578829" to="114102534#2"/>
    <trip id="283" type="passenger" depart="271.08" departLane="best" from="41056271#0" to="13839702#2"/>
    <trip id="284" type="passenger" depart="272.04" departLane="best" departSpeed="max" from="9863968" to="1030007306"/>
    <trip id="285" type="passenger" depart="273.00" departLane="best" from="648541876#0" to="12359021"/>
    <trip id="286" type="passenger" depart="273.96" departLane="best" from="23557428#1" to="211244220#0"/>
    <trip id="287" type="passenger" depart="274.91" departLane="best" from="23539806#3" to="722005717#1"/>
    <trip id="288" type="passenger" depart="275.87" departLane="best" departSpeed="max" from="9863968" to="13839702#2"/>
    <trip id="289" type="passenger" depart="276.83" departLane="best" from="4758623#0" to="41056271#0"/>
    <trip id="290" type="passenger" depart="277.79" departLane="best" from="52391671#0" to="95512937#0"/>