<?xml version="1.0" encoding="UTF-8"?>

<!-- generated on 2022-07-07 10:42:54 by Eclipse SUMO netconvert Version 1.13.0
<configuration xmlns:xsi="http://www.w3.org/2001/XMLSchema-instance" xsi:noNamespaceSchemaLocation="http://sumo.dlr.de/xsd/netconvertConfiguration.xsd">

    <input>
        <type-files value="/usr/share/sumo/data/typemap/osmNetconvert.typ.xml"/>
        <osm-files value="osm_bbox.osm.xml.gz"/>
    </input>

    <output>
        <output-file value="osm.net.xml"/>
        <output.street-names value="true"/>
        <output.original-names value="true"/>
    </output>

    <projection>
        <proj.utm value="true"/>
    </projection>

    <processing>
        <geometry.remove value="true"/>
        <roundabouts.guess value="true"/>
    </processing>

    <tls_building>
        <tls.discard-simple value="true"/>
        <tls.join value="true"/>
        <tls.guess-signals value="true"/>
        <tls.default-type value="actuated"/>
    </tls_building>

    <ramp_guessing>
        <ramps.guess value="true"/>
    </ramp_guessing>

    <edge_removal>
        <keep-edges.by-vclass value="passenger"/>
    </edge_removal>

    <junctions>
        <junctions.join value="true"/>
        <junctions.corner-detail value="5"/>
    </junctions>

    <report>
        <verbose value="true"/>
        <aggregate-warnings value="5"/>
    </report>

</configuration>
-->

<net version="1.9" junctionCornerDetail="5" limitTurnSpeed="5.50" xmlns:xsi="http://www.w3.org/2001/XMLSchema-instance" xsi:noNamespaceSchemaLocation="http://sumo.dlr.de/xsd/net_file.xsd">

    <location netOffset="-723168.95,-4371060.65" convBoundary="0.00,0.00,2472.40,1395.68" origBoundary="-0.425983,39.410989,-0.368722,39.497118" projParameter="+proj=utm +zone=30 +ellps=WGS84 +datum=WGS84 +units=m +no_defs"/>

    <type id="highway.bridleway" priority="1" numLanes="1" speed="2.78" allow="pedestrian" oneway="1" width="2.00"/>
    <type id="highway.bus_guideway" priority="1" numLanes="1" speed="27.78" allow="bus" oneway="1"/>
    <type id="highway.cycleway" priority="1" numLanes="1" speed="8.33" allow="bicycle" oneway="0" width="1.00"/>
    <type id="highway.footway" priority="1" numLanes="1" speed="2.78" allow="pedestrian" oneway="1" width="2.00"/>
    <type id="highway.ford" priority="1" numLanes="1" speed="2.78" allow="army" oneway="0"/>
    <type id="highway.living_street" priority="2" numLanes="1" speed="2.78" disallow="tram rail_urban rail rail_electric rail_fast ship" oneway="0"/>
    <type id="highway.motorway" priority="14" numLanes="2" speed="39.44" allow="private emergency authority army vip passenger hov taxi bus coach delivery truck trailer motorcycle evehicle custom1 custom2" oneway="1"/>
    <type id="highway.motorway_link" priority="9" numLanes="1" speed="22.22" allow="private emergency authority army vip passenger hov taxi bus coach delivery truck trailer motorcycle evehicle custom1 custom2" oneway="1"/>
    <type id="highway.path" priority="1" numLanes="1" speed="2.78" allow="pedestrian bicycle" oneway="0" width="2.00"/>
    <type id="highway.pedestrian" priority="1" numLanes="1" speed="2.78" allow="pedestrian" oneway="1" width="2.00"/>
    <type id="highway.primary" priority="12" numLanes="2" speed="27.78" disallow="tram rail_urban rail rail_electric rail_fast ship" oneway="0"/>
    <type id="highway.primary_link" priority="7" numLanes="1" speed="22.22" disallow="tram rail_urban rail rail_electric rail_fast ship" oneway="0"/>
    <type id="highway.raceway" priority="15" numLanes="2" speed="83.33" allow="vip" oneway="0"/>
    <type id="highway.residential" priority="3" numLanes="1" speed="13.89" disallow="tram rail_urban rail rail_electric rail_fast ship" oneway="0"/>
    <type id="highway.secondary" priority="11" numLanes="1" speed="27.78" disallow="tram rail_urban rail rail_electric rail_fast ship" oneway="0"/>
    <type id="highway.secondary_link" priority="6" numLanes="1" speed="22.22" disallow="tram rail_urban rail rail_electric rail_fast ship" oneway="0"/>
    <type id="highway.service" priority="1" numLanes="1" speed="5.56" allow="pedestrian delivery bicycle" oneway="0"/>
    <type id="highway.stairs" priority="1" numLanes="1" speed="1.39" allow="pedestrian" oneway="1" width="2.00"/>
    <type id="highway.step" priority="1" numLanes="1" speed="1.39" allow="pedestrian" oneway="1" width="2.00"/>
    <type id="highway.steps" priority="1" numLanes="1" speed="1.39" allow="pedestrian" oneway="1" width="2.00"/>
    <type id="highway.tertiary" priority="10" numLanes="1" speed="22.22" disallow="tram rail_urban rail rail_electric rail_fast ship" oneway="0"/>
    <type id="highway.tertiary_link" priority="5" numLanes="1" speed="22.22" disallow="tram rail_urban rail rail_electric rail_fast ship" oneway="0"/>
    <type id="highway.track" priority="1" numLanes="1" speed="5.56" allow="pedestrian motorcycle moped bicycle" oneway="0"/>
    <type id="highway.trunk" priority="13" numLanes="2" speed="27.78" disallow="pedestrian bicycle tram rail_urban rail rail_electric rail_fast ship" oneway="0"/>
    <type id="highway.trunk_link" priority="8" numLanes="1" speed="22.22" disallow="pedestrian bicycle tram rail_urban rail rail_electric rail_fast ship" oneway="0"/>
    <type id="highway.unclassified" priority="4" numLanes="1" speed="13.89" disallow="tram rail_urban rail rail_electric rail_fast ship" oneway="0"/>
    <type id="highway.unsurfaced" priority="1" numLanes="1" speed="8.33" disallow="tram rail_urban rail rail_electric rail_fast ship" oneway="0"/>
    <type id="railway.highspeed" priority="21" numLanes="1" speed="69.44" allow="rail_fast" oneway="1"/>
    <type id="railway.light_rail" priority="19" numLanes="1" speed="27.78" allow="rail_urban" oneway="1"/>
    <type id="railway.preserved" priority="16" numLanes="1" speed="27.78" allow="rail" oneway="1"/>
    <type id="railway.rail" priority="20" numLanes="1" speed="44.44" allow="rail" oneway="1"/>
    <type id="railway.subway" priority="18" numLanes="1" speed="27.78" allow="rail_urban" oneway="1"/>
    <type id="railway.tram" priority="17" numLanes="1" speed="13.89" allow="tram" oneway="1"/>

    <edge id=":1000578832#0-AddedOnRampNode_0" function="internal">
        <lane id=":1000578832#0-AddedOnRampNode_0_0" index="0" disallow="tram rail_urban rail rail_electric rail_fast ship" speed="27.78" length="4.70" shape="1395.55,490.18 1390.87,489.80"/>
    </edge>
    <edge id=":104413638_0" function="internal">
        <lane id=":104413638_0_0" index="0" disallow="tram rail_urban rail rail_electric rail_fast ship" speed="25.00" length="20.00" shape="1761.44,1182.95 1758.58,1180.82 1756.42,1176.65 1753.45,1172.07 1748.15,1168.70"/>
    </edge>
    <edge id=":104413638_1" function="internal">
        <lane id=":104413638_1_0" index="0" disallow="tram rail_urban rail rail_electric rail_fast ship" speed="8.49" length="20.94" shape="1761.44,1182.95 1757.91,1181.31 1756.78,1177.85 1758.05,1172.57 1761.72,1165.48"/>
    </edge>
    <edge id=":104413638_2" function="internal">
        <lane id=":104413638_2_0" index="0" disallow="tram rail_urban rail rail_electric rail_fast ship" speed="27.78" length="20.15" shape="1767.77,1172.92 1763.93,1172.73 1759.66,1171.98 1754.53,1170.65 1748.15,1168.70"/>
    </edge>
    <edge id=":104413638_3" function="internal">
        <lane id=":104413638_3_0" index="0" disallow="tram rail_urban rail rail_electric rail_fast ship" speed="5.63" length="9.29" shape="1767.77,1172.92 1764.97,1172.61 1763.49,1171.54 1763.32,1169.72 1764.45,1167.14"/>
    </edge>
    <edge id=":104413638_4" function="internal">
        <lane id=":104413638_4_0" index="0" disallow="tram rail_urban rail rail_electric rail_fast ship" speed="6.22" length="9.56" shape="1749.38,1179.37 1750.53,1176.71 1750.55,1174.55 1749.44,1172.90 1747.21,1171.76"/>
    </edge>
    <edge id=":104413638_5" function="internal">
        <lane id=":104413638_5_0" index="0" disallow="tram rail_urban rail rail_electric rail_fast ship" speed="13.89" length="18.33" shape="1749.38,1179.37 1758.99,1163.82"/>
        <lane id=":104413638_5_1" index="1" disallow="tram rail_urban rail rail_electric rail_fast ship" speed="13.89" length="18.33" shape="1752.09,1181.07 1761.72,1165.48"/>
        <lane id=":104413638_5_2" index="2" disallow="tram rail_urban rail rail_electric rail_fast ship" speed="13.89" length="18.33" shape="1754.80,1182.78 1764.45,1167.14"/>
    </edge>
    <edge id=":104413708_0" function="internal">
        <lane id=":104413708_0_0" index="0" disallow="tram rail_urban rail rail_electric rail_fast ship" speed="5.69" length="9.22" shape="915.20,927.17 912.48,926.75 910.74,927.39 909.98,929.08 910.20,931.82"/>
    </edge>
    <edge id=":104413708_1" function="internal">
        <lane id=":104413708_1_0" index="0" disallow="tram rail_urban rail rail_electric rail_fast ship" speed="27.78" length="14.02" shape="915.20,927.17 911.35,926.05 908.66,925.43 905.92,925.18 901.91,925.18"/>
        <lane id=":104413708_1_1" index="1" disallow="tram rail_urban rail rail_electric rail_fast ship" speed="27.78" length="14.02" shape="916.11,924.10 911.99,922.90 909.10,922.24 906.16,921.98 901.87,921.98"/>
    </edge>
    <edge id=":104413708_3" function="internal">
        <lane id=":104413708_3_0" index="0" disallow="tram rail_urban rail rail_electric rail_fast ship" speed="13.89" length="16.25" shape="906.31,916.04 910.20,931.82"/>
    </edge>
    <edge id=":104413708_4" function="internal">
        <lane id=":104413708_4_0" index="0" disallow="tram rail_urban rail rail_electric rail_fast ship" speed="6.02" length="9.08" shape="906.31,916.04 906.65,918.61 906.02,920.45 904.43,921.58 901.87,921.98"/>
    </edge>
    <edge id=":104413749_0" function="internal">
        <lane id=":104413749_0_0" index="0" disallow="tram rail_urban rail rail_electric rail_fast ship" speed="27.78" length="21.64" shape="817.68,924.04 796.02,923.56"/>
        <lane id=":104413749_0_1" index="1" disallow="tram rail_urban rail rail_electric rail_fast ship" speed="27.78" length="21.64" shape="817.74,920.84 796.12,920.36"/>
    </edge>
    <edge id=":104413749_2" function="internal">
        <lane id=":104413749_2_0" index="0" disallow="tram rail_urban rail rail_electric rail_fast ship" speed="10.40" length="4.57" shape="817.74,920.84 813.19,920.31"/>
    </edge>
    <edge id=":104413749_3" function="internal">
        <lane id=":104413749_3_0" index="0" disallow="pedestrian tram rail_urban rail rail_electric rail_fast ship" speed="5.54" length="4.46" shape="817.74,920.84 814.83,920.43 813.63,919.49"/>
    </edge>
    <edge id=":104413749_6" function="internal">
        <lane id=":104413749_6_0" index="0" disallow="tram rail_urban rail rail_electric rail_fast ship" speed="10.40" length="15.77" shape="813.19,920.31 811.62,920.12 806.95,918.21 803.72,915.10 801.94,910.79"/>
    </edge>
    <edge id=":104413749_7" function="internal">
        <lane id=":104413749_7_0" index="0" disallow="pedestrian tram rail_urban rail rail_electric rail_fast ship" speed="5.54" length="4.99" shape="813.63,919.49 813.42,919.33 813.50,917.54 815.06,915.06"/>
    </edge>
    <edge id=":104413749_4" function="internal">
        <lane id=":104413749_4_0" index="0" disallow="pedestrian tram rail_urban rail rail_electric rail_fast ship" speed="9.25" length="16.28" shape="800.65,929.02 802.30,926.71 802.66,923.41 801.72,919.12 799.48,913.85"/>
    </edge>
    <edge id=":104413749_5" function="internal">
        <lane id=":104413749_5_0" index="0" disallow="pedestrian tram rail_urban rail rail_electric rail_fast ship" speed="13.89" length="20.09" shape="800.65,929.02 804.11,926.08 808.14,922.33 812.02,918.44 815.06,915.06"/>
    </edge>
    <edge id=":105811181_0" function="internal">
        <lane id=":105811181_0_0" index="0" disallow="tram rail_urban rail rail_electric rail_fast ship" speed="5.51" length="9.53" shape="1366.07,783.74 1364.88,786.48 1365.08,788.25 1366.67,789.04 1369.65,788.86"/>
    </edge>
    <edge id=":105811181_1" function="internal">
        <lane id=":105811181_1_0" index="0" disallow="tram rail_urban rail rail_electric rail_fast ship" speed="13.89" length="19.88" shape="1366.07,783.74 1356.20,800.97"/>
        <lane id=":105811181_1_1" index="1" disallow="tram rail_urban rail rail_electric rail_fast ship" speed="13.89" length="19.88" shape="1363.31,782.13 1353.41,799.39"/>
    </edge>
    <edge id=":105811181_3" function="internal">
        <lane id=":105811181_3_0" index="0" disallow="tram rail_urban rail rail_electric rail_fast ship" speed="20.83" length="20.70" shape="1349.09,791.19 1369.65,788.86"/>
    </edge>
    <edge id=":108005207_0" function="internal">
        <lane id=":108005207_0_0" index="0" disallow="tram rail_urban rail rail_electric rail_fast ship" speed="15.03" length="16.14" shape="846.79,425.89 850.57,429.53 853.47,432.47 856.20,434.49 859.45,435.36"/>
    </edge>
    <edge id=":108005207_1" function="internal">
        <lane id=":108005207_1_0" index="0" disallow="tram rail_urban rail rail_electric rail_fast ship" speed="27.78" length="14.98" shape="844.49,434.57 859.45,435.36"/>
    </edge>
    <edge id=":108005221_0" function="internal">
        <lane id=":108005221_0_0" index="0" disallow="tram rail_urban rail rail_electric rail_fast ship" speed="6.18" length="9.05" shape="840.44,409.92 838.39,411.42 837.44,413.16 837.58,415.14 838.83,417.36"/>
    </edge>
    <edge id=":108005221_1" function="internal">
        <lane id=":108005221_1_0" index="0" disallow="tram rail_urban rail rail_electric rail_fast ship" speed="13.89" length="13.97" shape="840.44,409.92 837.27,411.60 834.25,413.15 831.19,414.62 827.90,416.05"/>
    </edge>
    <edge id=":108005221_2" function="internal">
        <lane id=":108005221_2_0" index="0" disallow="tram rail_urban rail rail_electric rail_fast ship" speed="13.89" length="13.50" shape="830.47,406.69 838.83,417.36"/>
        <lane id=":108005221_2_1" index="1" disallow="tram rail_urban rail rail_electric rail_fast ship" speed="13.89" length="13.50" shape="827.97,408.68 836.29,419.31"/>
        <lane id=":108005221_2_2" index="2" disallow="tram rail_urban rail rail_electric rail_fast ship" speed="13.89" length="13.50" shape="825.46,410.68 833.75,421.25"/>
    </edge>
    <edge id=":108005221_5" function="internal">
        <lane id=":108005221_5_0" index="0" disallow="tram rail_urban rail rail_electric rail_fast ship" speed="5.11" length="6.30" shape="825.46,410.68 827.05,412.81 827.99,414.42 828.27,415.50 827.90,416.05"/>
    </edge>
    <edge id=":111132052_0" function="internal">
        <lane id=":111132052_0_0" index="0" disallow="tram rail_urban rail rail_electric rail_fast ship" speed="20.83" length="14.29" shape="1564.07,447.55 1556.94,459.94"/>
        <lane id=":111132052_0_1" index="1" disallow="tram rail_urban rail rail_electric rail_fast ship" speed="20.83" length="14.29" shape="1561.29,445.96 1554.17,458.34"/>
    </edge>
    <edge id=":111132052_2" function="internal">
        <lane id=":111132052_2_0" index="0" disallow="tram rail_urban rail rail_electric rail_fast ship" speed="19.96" length="11.34" shape="1554.89,448.35 1557.94,449.84 1560.02,450.96 1561.82,452.41 1564.02,454.93"/>
        <lane id=":111132052_2_1" index="1" disallow="tram rail_urban rail rail_electric rail_fast ship" speed="19.85" length="11.34" shape="1553.57,451.27 1556.55,452.79 1558.54,453.97 1560.26,455.50 1562.41,458.03"/>
    </edge>
    <edge id=":111132077_0" function="internal">
        <lane id=":111132077_0_0" index="0" disallow="tram rail_urban rail rail_electric rail_fast ship" speed="11.43" length="12.08" shape="1536.88,512.37 1535.18,513.23 1533.29,514.98 1531.20,517.63 1528.92,521.19"/>
        <lane id=":111132077_0_1" index="1" disallow="tram rail_urban rail rail_electric rail_fast ship" speed="11.46" length="14.73" shape="1536.27,509.33 1533.99,510.19 1531.55,512.18 1528.94,515.30 1526.17,519.55"/>
        <lane id=":111132077_0_2" index="2" disallow="tram rail_urban rail rail_electric rail_fast ship" speed="11.93" length="16.01" shape="1536.27,509.33 1532.31,510.30 1528.84,512.05 1525.88,514.59 1523.41,517.92"/>
    </edge>
    <edge id=":111132077_3" function="internal">
        <lane id=":111132077_3_0" index="0" disallow="tram rail_urban rail rail_electric rail_fast ship" speed="13.89" length="17.53" shape="1536.27,509.33 1530.98,510.58 1527.24,511.90 1523.64,512.31 1518.77,510.81"/>
        <lane id=":111132077_3_1" index="1" disallow="tram rail_urban rail rail_electric rail_fast ship" speed="13.63" length="17.53" shape="1536.27,509.33 1531.28,510.25 1527.64,510.85 1524.28,510.34 1520.15,507.93"/>
    </edge>
    <edge id=":111132077_5" function="internal">
        <lane id=":111132077_5_0" index="0" disallow="tram rail_urban rail rail_electric rail_fast ship" speed="13.89" length="14.28" shape="1530.64,505.57 1523.41,517.92"/>
        <lane id=":111132077_5_1" index="1" disallow="tram rail_urban rail rail_electric rail_fast ship" speed="13.89" length="14.28" shape="1527.86,503.97 1520.66,516.28"/>
    </edge>
    <edge id=":111132083_0" function="internal">
        <lane id=":111132083_0_0" index="0" disallow="tram rail_urban rail rail_electric rail_fast ship" speed="13.89" length="11.41" shape="1517.96,510.28 1514.77,508.38 1512.29,507.38 1510.13,506.08 1507.91,503.30"/>
        <lane id=":111132083_0_1" index="1" disallow="tram rail_urban rail rail_electric rail_fast ship" speed="13.89" length="11.41" shape="1519.99,507.81 1517.05,506.11 1514.73,505.26 1512.70,504.15 1510.65,501.64"/>
        <lane id=":111132083_0_2" index="2" disallow="tram rail_urban rail rail_electric rail_fast ship" speed="13.89" length="11.41" shape="1519.99,507.81 1517.60,505.91 1516.14,504.39 1514.96,502.62 1513.38,499.98"/>
    </edge>
    <edge id=":111132083_3" function="internal">
        <lane id=":111132083_3_0" index="0" disallow="tram rail_urban rail rail_electric rail_fast ship" speed="7.11" length="10.18" shape="1519.99,507.81 1518.46,506.10 1517.89,504.01 1518.30,501.52 1519.69,498.64"/>
    </edge>
    <edge id=":111132083_4" function="internal">
        <lane id=":111132083_4_0" index="0" disallow="tram rail_urban rail rail_electric rail_fast ship" speed="27.78" length="15.91" shape="1508.56,510.47 1516.94,497.01"/>
        <lane id=":111132083_4_1" index="1" disallow="tram rail_urban rail rail_electric rail_fast ship" speed="27.78" length="15.91" shape="1511.25,512.21 1519.69,498.64"/>
    </edge>
    <edge id=":111132088_0" function="internal">
        <lane id=":111132088_0_0" index="0" disallow="tram rail_urban rail rail_electric rail_fast ship" speed="6.93" length="3.35" shape="1507.81,503.13 1509.60,500.30"/>
    </edge>
    <edge id=":111132088_1" function="internal">
        <lane id=":111132088_1_0" index="0" disallow="tram rail_urban rail rail_electric rail_fast ship" speed="20.83" length="0.83" shape="1510.54,501.47 1510.39,501.12 1510.38,500.84 1510.38,500.55 1510.28,500.17"/>
        <lane id=":111132088_1_1" index="1" disallow="tram rail_urban rail rail_electric rail_fast ship" speed="20.83" length="0.83" shape="1513.28,499.81 1513.49,499.57"/>
    </edge>
    <edge id=":111132097_0" function="internal">
        <lane id=":111132097_0_0" index="0" disallow="tram rail_urban rail rail_electric rail_fast ship" speed="14.05" length="16.28" shape="1499.49,483.44 1502.08,481.36 1503.58,478.29 1504.82,474.24 1506.64,469.25"/>
    </edge>
    <edge id=":111132097_1" function="internal">
        <lane id=":111132097_1_0" index="0" disallow="tram rail_urban rail rail_electric rail_fast ship" speed="19.52" length="12.16" shape="1506.92,482.51 1506.91,478.84 1507.26,476.33 1508.10,473.91 1509.58,470.53"/>
        <lane id=":111132097_1_1" index="1" disallow="tram rail_urban rail rail_electric rail_fast ship" speed="19.06" length="12.16" shape="1510.15,483.27 1510.11,479.77 1510.38,477.36 1511.12,475.04 1512.51,471.82"/>
    </edge>
    <edge id=":111132101_0" function="internal">
        <lane id=":111132101_0_0" index="0" disallow="tram rail_urban rail rail_electric rail_fast ship" speed="20.84" length="10.73" shape="1514.74,458.34 1517.51,457.19 1519.32,455.95 1521.09,454.49 1523.72,452.61"/>
    </edge>
    <edge id=":111132101_1" function="internal">
        <lane id=":111132101_1_0" index="0" disallow="tram rail_urban rail rail_electric rail_fast ship" speed="20.74" length="15.43" shape="1512.75,463.93 1515.24,459.90 1517.26,457.31 1519.77,455.20 1523.72,452.61"/>
        <lane id=":111132101_1_1" index="1" disallow="tram rail_urban rail rail_electric rail_fast ship" speed="19.96" length="15.43" shape="1515.33,465.85 1517.62,462.11 1519.47,459.70 1521.78,457.72 1525.43,455.32"/>
    </edge>
    <edge id=":111132112_0" function="internal">
        <lane id=":111132112_0_0" index="0" disallow="tram rail_urban rail rail_electric rail_fast ship" speed="14.30" length="13.47" shape="1541.33,445.92 1545.40,445.36 1548.27,445.49 1551.02,446.42 1554.72,448.26"/>
        <lane id=":111132112_0_1" index="1" disallow="tram rail_urban rail rail_electric rail_fast ship" speed="13.76" length="13.47" shape="1541.01,449.23 1544.76,448.67 1547.42,448.72 1549.97,449.51 1553.39,451.18"/>
    </edge>
    <edge id=":111132112_2" function="internal">
        <lane id=":111132112_2_0" index="0" disallow="tram rail_urban rail rail_electric rail_fast ship" speed="27.78" length="14.29" shape="1543.37,453.60 1550.92,441.43"/>
        <lane id=":111132112_2_1" index="1" disallow="tram rail_urban rail rail_electric rail_fast ship" speed="27.78" length="14.29" shape="1546.10,455.26 1553.62,443.14"/>
    </edge>
    <edge id=":111148850_0" function="internal">
        <lane id=":111148850_0_0" index="0" disallow="tram rail_urban rail rail_electric rail_fast ship" speed="22.22" length="3.23" shape="2116.89,736.11 2117.24,737.00 2117.50,737.60 2117.80,738.19 2118.27,739.02"/>
    </edge>
    <edge id=":111148850_1" function="internal">
        <lane id=":111148850_1_0" index="0" disallow="tram rail_urban rail rail_electric rail_fast ship" speed="22.22" length="3.20" shape="2113.89,737.82 2115.48,740.59"/>
    </edge>
    <edge id=":111200267_0" function="internal">
        <lane id=":111200267_0_0" index="0" disallow="tram rail_urban rail rail_electric rail_fast ship" speed="27.78" length="3.32" shape="1333.87,787.51 1334.83,787.29 1335.48,787.11 1336.12,786.87 1337.02,786.48"/>
        <lane id=":111200267_0_1" index="1" disallow="tram rail_urban rail rail_electric rail_fast ship" speed="27.78" length="3.98" shape="1334.55,790.63 1335.70,790.38 1336.48,790.16 1337.24,789.88 1338.32,789.40"/>
    </edge>
    <edge id=":111200267_2" function="internal">
        <lane id=":111200267_2_0" index="0" disallow="tram rail_urban rail rail_electric rail_fast ship" speed="27.78" length="3.67" shape="1335.22,793.76 1338.80,792.99"/>
        <lane id=":111200267_2_1" index="1" disallow="tram rail_urban rail rail_electric rail_fast ship" speed="27.78" length="3.67" shape="1335.90,796.89 1339.48,796.11"/>
    </edge>
    <edge id=":111200273_0" function="internal">
        <lane id=":111200273_0_0" index="0" disallow="tram rail_urban rail rail_electric rail_fast ship" speed="6.49" length="9.03" shape="1388.01,699.56 1390.29,700.54 1392.32,700.56 1394.13,699.61 1395.69,697.69"/>
    </edge>
    <edge id=":111200273_1" function="internal">
        <lane id=":111200273_1_0" index="0" disallow="tram rail_urban rail rail_electric rail_fast ship" speed="27.78" length="11.24" shape="1389.84,707.26 1395.69,697.69"/>
        <lane id=":111200273_1_1" index="1" disallow="tram rail_urban rail rail_electric rail_fast ship" speed="27.78" length="11.24" shape="1392.56,708.95 1398.43,699.34"/>
    </edge>
    <edge id=":111200276_0" function="internal">
        <lane id=":111200276_0_0" index="0" disallow="tram rail_urban rail rail_electric rail_fast ship" speed="18.42" length="12.65" shape="1316.43,801.02 1320.16,802.05 1322.47,803.46 1324.53,805.40 1327.55,808.04"/>
        <lane id=":111200276_0_1" index="1" disallow="tram rail_urban rail rail_electric rail_fast ship" speed="17.35" length="12.65" shape="1315.85,804.17 1319.14,805.11 1321.14,806.42 1322.93,808.20 1325.58,810.56"/>
    </edge>
    <edge id=":111200276_2" function="internal">
        <lane id=":111200276_2_0" index="0" disallow="tram rail_urban rail rail_electric rail_fast ship" speed="10.13" length="9.27" shape="1315.28,807.32 1317.46,808.01 1319.49,809.25 1321.36,811.05 1323.08,813.40"/>
        <lane id=":111200276_2_1" index="1" disallow="tram rail_urban rail rail_electric rail_fast ship" speed="9.22" length="9.27" shape="1314.71,810.47 1316.26,811.02 1317.80,812.09 1319.33,813.70 1320.84,815.84"/>
    </edge>
    <edge id=":111200291_0" function="internal">
        <lane id=":111200291_0_0" index="0" disallow="tram rail_urban rail rail_electric rail_fast ship" speed="27.78" length="29.09" shape="1280.57,792.86 1289.51,792.17 1296.25,793.59 1302.20,795.88 1308.78,797.80"/>
        <lane id=":111200291_0_1" index="1" disallow="tram rail_urban rail rail_electric rail_fast ship" speed="27.78" length="27.90" shape="1281.22,796.00 1289.72,795.35 1296.07,796.77 1301.74,799.04 1308.22,800.95"/>
    </edge>
    <edge id=":111200291_2" function="internal">
        <lane id=":111200291_2_0" index="0" disallow="tram rail_urban rail rail_electric rail_fast ship" speed="27.78" length="27.82" shape="1281.86,799.13 1290.47,797.66 1296.49,797.50 1302.52,798.40 1311.16,800.06"/>
        <lane id=":111200291_2_1" index="1" disallow="tram rail_urban rail rail_electric rail_fast ship" speed="27.78" length="27.82" shape="1282.51,802.26 1290.76,800.86 1296.53,800.73 1302.31,801.61 1310.59,803.21"/>
        <lane id=":111200291_2_2" index="2" disallow="tram rail_urban rail rail_electric rail_fast ship" speed="27.78" length="27.82" shape="1283.15,805.40 1291.05,804.07 1296.57,803.96 1302.10,804.82 1310.03,806.36"/>
        <lane id=":111200291_2_3" index="3" disallow="tram rail_urban rail rail_electric rail_fast ship" speed="27.78" length="27.82" shape="1283.80,808.53 1291.34,807.27 1296.61,807.19 1301.89,808.03 1309.47,809.51"/>
    </edge>
    <edge id=":111200298_0" function="internal">
        <lane id=":111200298_0_0" index="0" disallow="tram rail_urban rail rail_electric rail_fast ship" speed="6.02" length="9.08" shape="1349.34,812.59 1348.26,814.94 1348.31,816.89 1349.50,818.44 1351.83,819.58"/>
    </edge>
    <edge id=":111200298_1" function="internal">
        <lane id=":111200298_1_0" index="0" disallow="tram rail_urban rail rail_electric rail_fast ship" speed="13.89" length="14.64" shape="1349.34,812.59 1341.62,824.98"/>
        <lane id=":111200298_1_1" index="1" disallow="tram rail_urban rail rail_electric rail_fast ship" speed="13.89" length="14.64" shape="1346.65,810.86 1338.88,823.32"/>
    </edge>
    <edge id=":111200298_3" function="internal">
        <lane id=":111200298_3_0" index="0" disallow="tram rail_urban rail rail_electric rail_fast ship" speed="20.84" length="15.98" shape="1337.14,813.32 1341.99,815.05 1345.57,816.73 1348.60,818.27 1351.83,819.58"/>
    </edge>
    <edge id=":111200298_4" function="internal">
        <lane id=":111200298_4_0" index="0" disallow="tram rail_urban rail rail_electric rail_fast ship" speed="6.03" length="9.07" shape="1336.22,816.38 1338.56,817.47 1339.79,818.99 1339.90,820.94 1338.88,823.32"/>
    </edge>
    <edge id=":112184444_0" function="internal">
        <lane id=":112184444_0_0" index="0" disallow="tram rail_urban rail rail_electric rail_fast ship" speed="7.48" length="8.66" shape="1835.89,698.01 1834.91,696.21 1834.61,694.26 1834.98,692.15 1836.02,689.89"/>
    </edge>
    <edge id=":112184444_1" function="internal">
        <lane id=":112184444_1_0" index="0" disallow="tram rail_urban rail rail_electric rail_fast ship" speed="5.10" length="6.89" shape="1835.89,698.01 1835.07,696.43 1835.24,695.15 1836.42,694.15 1838.58,693.44"/>
    </edge>
    <edge id=":112184444_2" function="internal">
        <lane id=":112184444_2_0" index="0" disallow="tram rail_urban rail rail_electric rail_fast ship" speed="8.82" length="7.78" shape="1830.52,695.11 1831.89,694.58 1833.26,693.53 1834.64,691.97 1836.02,689.89"/>
    </edge>
    <edge id=":112184444_3" function="internal">
        <lane id=":112184444_3_0" index="0" disallow="tram rail_urban rail rail_electric rail_fast ship" speed="27.78" length="8.23" shape="1830.52,695.11 1838.58,693.44"/>
    </edge>
    <edge id=":112184459_0" function="internal">
        <lane id=":112184459_0_0" index="0" disallow="tram rail_urban rail rail_electric rail_fast ship" speed="27.78" length="10.03" shape="2016.70,657.58 2026.43,655.11"/>
    </edge>
    <edge id=":112184459_1" function="internal">
        <lane id=":112184459_1_0" index="0" disallow="tram rail_urban rail rail_electric rail_fast ship" speed="19.33" length="10.06" shape="2016.70,657.58 2019.60,657.23 2021.62,657.49 2023.63,658.14 2026.52,658.92"/>
    </edge>
    <edge id=":112184532_0" function="internal">
        <lane id=":112184532_0_0" index="0" disallow="tram rail_urban rail rail_electric rail_fast ship" speed="27.78" length="12.11" shape="1732.50,420.66 1725.78,410.59"/>
        <lane id=":112184532_0_1" index="1" disallow="tram rail_urban rail rail_electric rail_fast ship" speed="27.78" length="12.11" shape="1735.16,418.89 1728.44,408.82"/>
        <lane id=":112184532_0_2" index="2" disallow="tram rail_urban rail rail_electric rail_fast ship" speed="27.78" length="12.11" shape="1737.82,417.11 1731.10,407.04"/>
        <lane id=":112184532_0_3" index="3" disallow="tram rail_urban rail rail_electric rail_fast ship" speed="27.78" length="12.11" shape="1740.48,415.33 1733.76,405.27"/>
    </edge>
    <edge id=":112184532_4" function="internal">
        <lane id=":112184532_4_0" index="0" disallow="tram rail_urban rail rail_electric rail_fast ship" speed="7.27" length="10.17" shape="1740.48,415.33 1739.13,412.70 1738.74,410.28 1739.32,408.09 1740.86,406.12"/>